ELMER SOLVER (v 8.3) STARTED AT: 2017/08/19 00:05:51
ParCommInit:  Initialize #PEs:            1
MAIN: 
MAIN: =============================================================
MAIN: ElmerSolver finite element software, Welcome!
MAIN: This program is free software licensed under (L)GPL
MAIN: Copyright 1st April 1995 - , CSC - IT Center for Science Ltd.
MAIN: Webpage http://www.csc.fi/elmer, Email elmeradm@csc.fi
MAIN: Version: 8.3 (Rev: unknown, Compiled: 2017-08-17)
MAIN: =============================================================
MAIN: 
MAIN: 
MAIN: -------------------------------------
MAIN: Reading Model: case2.sif
LoadInputFile: Scanning input file: case2.sif
LoadInputFile: Loading input file: case2.sif
Model Input:  Unlisted keyword: [stress bodyforce 1 im] in section: [body force 1]
WARNING:: LoadInputFile: > Equation 3 < not used in any Body!
Loading user function library: [ResultOutputSolve]...[ResultOutputSolver_Init0]
Loading user function library: [StressSolve]...[StressSolver_Init0]
Loading user function library: [HelmholtzSolve]...[HelmholtzSolver_Init0]
LoadMesh: Base mesh name: ./.
LoadMesh: Elapsed REAL time:     0.8559 (s)
WARNING:: CheckTimer: Requesting time from non-existing timer: LoadMesh
WARNING:: ListFind: 
WARNING:: ListFind:  Requested property: [Stabilization Use Longest Element Edge], not found
WARNING:: ListFind: 
WARNING:: CheckTimer: Requesting time from non-existing timer: MeshStabParams
MAIN: -------------------------------------
Loading user function library: [ResultOutputSolve]...[ResultOutputSolver_Init]
Loading user function library: [ResultOutputSolve]...[ResultOutputSolver_bulk]
Loading user function library: [ResultOutputSolve]...[ResultOutputSolver]
Loading user function library: [StressSolve]...[StressSolver_Init]
Loading user function library: [StressSolve]...[StressSolver_bulk]
Loading user function library: [StressSolve]...[StressSolver]
OptimizeBandwidth: ---------------------------------------------------------
OptimizeBandwidth: Computing matrix structure for: linear elasticity...done.
OptimizeBandwidth: Half bandwidth without optimization: 19819
OptimizeBandwidth: 
OptimizeBandwidth: Bandwidth Optimization ...done.
OptimizeBandwidth: Half bandwidth after optimization: 1286
OptimizeBandwidth: ---------------------------------------------------------
Loading user function library: [HelmholtzSolve]...[HelmholtzSolver_Init]
Loading user function library: [HelmholtzSolve]...[HelmholtzSolver_bulk]
Loading user function library: [HelmholtzSolve]...[HelmholtzSolver]
OptimizeBandwidth: ---------------------------------------------------------
OptimizeBandwidth: Computing matrix structure for: helmholtz equation...done.
OptimizeBandwidth: Half bandwidth without optimization: 290711
OptimizeBandwidth: 
OptimizeBandwidth: Bandwidth Optimization ...done.
OptimizeBandwidth: Half bandwidth after optimization: 22938
OptimizeBandwidth: ---------------------------------------------------------
MAIN: 
MAIN: -------------------------------------
MAIN:  Steady state iteration:            1
MAIN: -------------------------------------
MAIN: 
SingleSolver: Attempting to call solver
SingleSolver: Solver Equation string is: linear elasticity
StressSolve: 
StressSolve: --------------------------------------------------
StressSolve: Solving displacements from linear elasticity model
StressSolve: --------------------------------------------------
StressSolve:  Displacemet iteration:            1
StressSolve: Starting assembly...
StressSolve: Assembly:
: .......Bulk assembly done
DefUtils::DefaultDirichletBCs: Setting Dirichlet boundary conditions
DefUtils::DefaultDirichletBCs: Dirichlet boundary conditions set
StressSolve: Set boundaries done
OptimizeBandwidth: ---------------------------------------------------------
OptimizeBandwidth: Computing matrix structure for: linear elasticity...done.
OptimizeBandwidth: Half bandwidth without optimization: 19819
OptimizeBandwidth: 
OptimizeBandwidth: Bandwidth Optimization ...done.
OptimizeBandwidth: Half bandwidth after optimization: 1286
OptimizeBandwidth: ---------------------------------------------------------
HarmonicSolve: 
HarmonicSolve: Frequency value:    0.275E+02
ComputeChange: NS (ITER=1) (NRM,RELC): ( 0.11348208E-06  2.0000000     ) :: linear elasticity
StressSolve:  Displacemet iteration:            2
StressSolve: Starting assembly...
StressSolve: Assembly:
: ......Bulk assembly done
DefUtils::DefaultDirichletBCs: Setting Dirichlet boundary conditions
DefUtils::DefaultDirichletBCs: Dirichlet boundary conditions set
StressSolve: Set boundaries done
HarmonicSolve: 
HarmonicSolve: Frequency value:    0.275E+02
ComputeChange: NS (ITER=2) (NRM,RELC): ( 0.11348208E-06  0.0000000     ) :: linear elasticity
StressSolver: Computing stresses for eigenmode: 1
StressSolver: ------------------------------------------
StressSolver: Starting Stress Computation
OptimizeBandwidth: ---------------------------------------------------------
OptimizeBandwidth: Computing matrix structure for: calculate stresses...done.
OptimizeBandwidth: Half bandwidth without optimization: 19819
OptimizeBandwidth: 
OptimizeBandwidth: Bandwidth Optimization ...done.
OptimizeBandwidth: Half bandwidth after optimization: 1286
OptimizeBandwidth: ---------------------------------------------------------
StressSolver: Solving for Stress(1,1)
StressSolver: Solving for Stress(1,2)
StressSolver: Solving for Stress(1,3)
StressSolver: Solving for Stress(2,2)
StressSolver: Solving for Stress(2,3)
StressSolver: Solving for Stress(3,3)
StressSolver: Finished Stress Computation
StressSolver: ------------------------------------------
StressSolver: ------------------------------------------
StressSolver: Starting Stress Computation
StressSolver: Solving for Stress(1,1)
SolveSystem: Solution trivially zero!
StressSolver: Solving for Stress(1,2)
SolveSystem: Solution trivially zero!
StressSolver: Solving for Stress(1,3)
SolveSystem: Solution trivially zero!
StressSolver: Solving for Stress(2,2)
SolveSystem: Solution trivially zero!
StressSolver: Solving for Stress(2,3)
SolveSystem: Solution trivially zero!
StressSolver: Solving for Stress(3,3)
SolveSystem: Solution trivially zero!
StressSolver: Finished Stress Computation
StressSolver: ------------------------------------------
StressSolver: All done
StressSolver: ------------------------------------------
ComputeChange: SS (ITER=1) (NRM,RELC): (  0.0000000      0.0000000     ) :: linear elasticity
SingleSolver: Attempting to call solver
SingleSolver: Solver Equation string is: helmholtz equation
HelmholtzSolve: 
HelmholtzSolve: -------------------------------------
HelmholtzSolve:  Helmholtz iteration           1
HelmholtzSolve:  Frequency (Hz):    27.501700000000000
HelmholtzSolve: -------------------------------------
HelmholtzSolve: 
HelmholtzSolve: Starting Assembly
HelmholtzSolve: Assembly:
: .................... 31%
: .................... 63%
: .................... 93%
: ....Assembly done
DefUtils::DefaultDirichletBCs: Setting Dirichlet boundary conditions
DefUtils::DefaultDirichletBCs: Dirichlet boundary conditions set
       1 0.5549E+00
       2 0.4272E+00
       3 0.3915E+00
       4 0.3636E+00
       5 0.3284E+00
       6 0.3055E+00
       7 0.2868E+00
       8 0.2664E+00
       9 0.2481E+00
      10 0.2318E+00
      11 0.2156E+00
      12 0.1997E+00
      13 0.1839E+00
      14 0.1695E+00
      15 0.1562E+00
      16 0.1444E+00
      17 0.1353E+00
      18 0.1273E+00
      19 0.1199E+00
      20 0.1129E+00
      21 0.1064E+00
      22 0.1004E+00
      23 0.9453E-01
      24 0.8933E-01
      25 0.8433E-01
      26 0.7952E-01
      27 0.7534E-01
      28 0.7156E-01
      29 0.6828E-01
      30 0.6534E-01
      31 0.6230E-01
      32 0.5941E-01
      33 0.5667E-01
      34 0.5411E-01
      35 0.5158E-01
      36 0.5217E-01
      37 0.5023E-01
      38 0.4157E-01
      39 0.3620E-01
      40 0.3586E-01
      41 0.3593E-01
      42 0.3426E-01
      43 0.3395E-01
      44 0.3424E-01
      45 0.3248E-01
      46 0.3143E-01
      47 0.3052E-01
      48 0.2949E-01
      49 0.2938E-01
      50 0.2825E-01
      51 0.7059E-01
      52 0.5050E-01
      53 0.4153E-01
      54 0.3772E-01
      55 0.3468E-01
      56 0.3396E-01
      57 0.3313E-01
      58 0.3251E-01
      59 0.3207E-01
      60 0.3188E-01
      61 0.3125E-01
      62 0.3100E-01
      63 0.3062E-01
      64 0.3343E-01
      65 0.2900E-01
      66 0.2946E-01
      67 0.2697E-01
      68 0.2591E-01
      69 0.2626E-01
      70 0.2454E-01
      71 0.2411E-01
      72 0.2531E-01
      73 0.2422E-01
      74 0.2382E-01
      75 0.2368E-01
      76 0.2335E-01
      77 0.2326E-01
      78 0.2425E-01
      79 0.2361E-01
      80 0.2349E-01
      81 0.2303E-01
      82 0.2305E-01
      83 0.2265E-01
      84 0.2257E-01
      85 0.2175E-01
      86 0.2115E-01
      87 0.2066E-01
      88 0.2020E-01
      89 0.1943E-01
      90 0.1944E-01
      91 0.1959E-01
      92 0.1928E-01
      93 0.1929E-01
      94 0.1870E-01
      95 0.1876E-01
      96 0.1878E-01
      97 0.1855E-01
      98 0.1713E-01
      99 0.1632E-01
     100 0.1638E-01
     101 0.1870E-01
     102 0.1536E-01
     103 0.1495E-01
     104 0.1471E-01
     105 0.1440E-01
     106 0.1443E-01
     107 0.1458E-01
     108 0.1488E-01
     109 0.1404E-01
     110 0.1360E-01
     111 0.1363E-01
     112 0.1366E-01
     113 0.1366E-01
     114 0.1489E-01
     115 0.1457E-01
     116 0.1324E-01
     117 0.1266E-01
     118 0.1264E-01
     119 0.1305E-01
     120 0.1206E-01
     121 0.1177E-01
     122 0.1204E-01
     123 0.1131E-01
     124 0.1122E-01
     125 0.1118E-01
     126 0.1112E-01
     127 0.1103E-01
     128 0.1117E-01
     129 0.1052E-01
     130 0.1125E-01
     131 0.1077E-01
     132 0.1003E-01
     133 0.9992E-02
     134 0.9305E-02
     135 0.9787E-02
     136 0.9193E-02
     137 0.9081E-02
     138 0.8929E-02
     139 0.8601E-02
     140 0.1018E-01
     141 0.9130E-02
     142 0.8220E-02
     143 0.8243E-02
     144 0.7931E-02
     145 0.8071E-02
     146 0.8138E-02
     147 0.7830E-02
     148 0.7667E-02
     149 0.7671E-02
     150 0.7429E-02
     151 0.7031E-02
     152 0.6837E-02
     153 0.6721E-02
     154 0.6695E-02
     155 0.7417E-02
     156 0.7050E-02
     157 0.6725E-02
     158 0.6742E-02
     159 0.6641E-02
     160 0.7292E-02
     161 0.7370E-02
     162 0.6130E-02
     163 0.6202E-02
     164 0.6272E-02
     165 0.6319E-02
     166 0.6234E-02
     167 0.6231E-02
     168 0.6126E-02
     169 0.7682E-02
     170 0.7282E-02
     171 0.6828E-02
     172 0.7661E-02
     173 0.1030E-01
     174 0.9321E-02
     175 0.9507E-02
     176 0.1644E-01
     177 0.8114E-02
     178 0.6060E-02
     179 0.6021E-02
     180 0.5718E-02
     181 0.5466E-02
     182 0.5388E-02
     183 0.5234E-02
     184 0.5143E-02
     185 0.5011E-02
     186 0.5004E-02
     187 0.4856E-02
     188 0.4802E-02
     189 0.4803E-02
     190 0.5009E-02
     191 0.5108E-02
     192 0.4618E-02
     193 0.4582E-02
     194 0.4435E-02
     195 0.4376E-02
     196 0.4383E-02
     197 0.4405E-02
     198 0.4389E-02
     199 0.4387E-02
     200 0.4412E-02
     201 0.4499E-02
     202 0.4115E-02
     203 0.4129E-02
     204 0.4027E-02
     205 0.4037E-02
     206 0.4048E-02
     207 0.4054E-02
     208 0.4038E-02
     209 0.4661E-02
     210 0.4383E-02
     211 0.4353E-02
     212 0.4348E-02
     213 0.4327E-02
     214 0.4286E-02
     215 0.4332E-02
     216 0.4130E-02
     217 0.4063E-02
     218 0.4046E-02
     219 0.4025E-02
     220 0.3821E-02
     221 0.3525E-02
     222 0.3435E-02
     223 0.3464E-02
     224 0.3440E-02
     225 0.3404E-02
     226 0.3429E-02
     227 0.3590E-02
     228 0.3577E-02
     229 0.3367E-02
     230 0.3369E-02
     231 0.3529E-02
     232 0.4145E-02
     233 0.3783E-02
     234 0.3393E-02
     235 0.3038E-02
     236 0.3062E-02
     237 0.3017E-02
     238 0.2944E-02
     239 0.2957E-02
     240 0.2836E-02
     241 0.2851E-02
     242 0.2824E-02
     243 0.2907E-02
     244 0.3050E-02
     245 0.2774E-02
     246 0.2760E-02
     247 0.2640E-02
     248 0.2628E-02
     249 0.2816E-02
     250 0.2643E-02
     251 0.2551E-02
     252 0.2582E-02
     253 0.2487E-02
     254 0.2432E-02
     255 0.2343E-02
     256 0.2299E-02
     257 0.2271E-02
     258 0.2271E-02
     259 0.2260E-02
     260 0.2382E-02
     261 0.2305E-02
     262 0.2527E-02
     263 0.2287E-02
     264 0.2254E-02
     265 0.2258E-02
     266 0.2258E-02
     267 0.2242E-02
     268 0.2266E-02
     269 0.1936E-02
     270 0.2064E-02
     271 0.1985E-02
     272 0.1971E-02
     273 0.2009E-02
     274 0.1911E-02
     275 0.1926E-02
     276 0.1733E-02
     277 0.1868E-02
     278 0.1850E-02
     279 0.1824E-02
     280 0.1850E-02
     281 0.1825E-02
     282 0.1773E-02
     283 0.1820E-02
     284 0.2098E-02
     285 0.1852E-02
     286 0.1823E-02
     287 0.1819E-02
     288 0.1649E-02
     289 0.1642E-02
     290 0.1641E-02
     291 0.1627E-02
     292 0.1572E-02
     293 0.1572E-02
     294 0.1599E-02
     295 0.1634E-02
     296 0.1669E-02
     297 0.1633E-02
     298 0.1622E-02
     299 0.1591E-02
     300 0.1605E-02
     301 0.1608E-02
     302 0.2961E-02
     303 0.1369E-02
     304 0.1340E-02
     305 0.1599E-02
     306 0.2928E-02
     307 0.1393E-02
     308 0.1370E-02
     309 0.1447E-02
     310 0.1449E-02
     311 0.1790E-02
     312 0.1623E-02
     313 0.1695E-02
     314 0.1722E-02
     315 0.1719E-02
     316 0.1916E-02
     317 0.1687E-02
     318 0.1732E-02
     319 0.1411E-02
     320 0.1504E-02
     321 0.1520E-02
     322 0.1511E-02
     323 0.1537E-02
     324 0.1468E-02
     325 0.1429E-02
     326 0.1447E-02
     327 0.1366E-02
     328 0.1359E-02
     329 0.1375E-02
     330 0.1461E-02
     331 0.1360E-02
     332 0.1398E-02
     333 0.1340E-02
     334 0.1343E-02
     335 0.1392E-02
     336 0.1397E-02
     337 0.1398E-02
     338 0.1386E-02
     339 0.1384E-02
     340 0.1394E-02
     341 0.1392E-02
     342 0.1392E-02
     343 0.1388E-02
     344 0.1391E-02
     345 0.1396E-02
     346 0.1392E-02
     347 0.1427E-02
     348 0.1418E-02
     349 0.1412E-02
     350 0.1447E-02
     351 0.1651E-02
     352 0.1468E-02
     353 0.1567E-02
     354 0.1569E-02
     355 0.1441E-02
     356 0.1429E-02
     357 0.1340E-02
     358 0.1496E-02
     359 0.1236E-02
     360 0.1241E-02
     361 0.1225E-02
     362 0.1222E-02
     363 0.1229E-02
     364 0.1228E-02
     365 0.1223E-02
     366 0.1224E-02
     367 0.1225E-02
     368 0.1224E-02
     369 0.1222E-02
     370 0.1215E-02
     371 0.1210E-02
     372 0.1210E-02
     373 0.1209E-02
     374 0.1208E-02
     375 0.1206E-02
     376 0.1197E-02
     377 0.1212E-02
     378 0.1246E-02
     379 0.6320E-02
     380 0.5711E-02
     381 0.5468E-02
     382 0.5837E-02
     383 0.5800E-02
     384 0.5615E-02
     385 0.5660E-02
     386 0.5357E-02
     387 0.5026E-02
     388 0.4797E-02
     389 0.4814E-02
     390 0.5078E-02
     391 0.5210E-02
     392 0.4527E-02
     393 0.3996E-02
     394 0.6645E-02
     395 0.9281E-02
     396 0.8083E-02
     397 0.6566E-02
     398 0.1494E-01
     399 0.2407E-01
     400 0.5348E-02
     401 0.1035E-01
     402 0.2654E-02
     403 0.1823E-02
     404 0.1968E-02
     405 0.1792E-02
     406 0.1791E-02
     407 0.1936E-02
     408 0.2109E-02
     409 0.2004E-02
     410 0.2007E-02
     411 0.1718E-02
     412 0.1873E-02
     413 0.1986E-02
     414 0.1867E-02
     415 0.2765E-02
     416 0.3407E-02
     417 0.1443E-02
     418 0.1397E-02
     419 0.1482E-02
     420 0.1723E-02
     421 0.2281E-02
     422 0.1981E-02
     423 0.2061E-02
     424 0.2842E-02
     425 0.2459E-02
     426 0.2040E-02
     427 0.1891E-02
     428 0.1697E-02
     429 0.1509E-02
     430 0.1299E-02
     431 0.1677E-02
     432 0.1876E-02
     433 0.1762E-02
     434 0.1706E-02
     435 0.1412E-02
     436 0.1438E-02
     437 0.1326E-02
     438 0.1277E-02
     439 0.1261E-02
     440 0.1224E-02
     441 0.1208E-02
     442 0.1208E-02
     443 0.1205E-02
     444 0.1198E-02
     445 0.1211E-02
     446 0.1225E-02
     447 0.1245E-02
     448 0.1202E-02
     449 0.1201E-02
     450 0.1384E-02
     451 0.1293E-02
     452 0.1203E-02
     453 0.1194E-02
     454 0.1192E-02
     455 0.1196E-02
     456 0.1197E-02
     457 0.1188E-02
     458 0.1190E-02
     459 0.1193E-02
     460 0.1185E-02
     461 0.1188E-02
     462 0.1192E-02
     463 0.1194E-02
     464 0.1189E-02
     465 0.1227E-02
     466 0.1179E-02
     467 0.1185E-02
     468 0.1151E-02
     469 0.1138E-02
     470 0.1156E-02
     471 0.1162E-02
     472 0.1159E-02
     473 0.1159E-02
     474 0.1141E-02
     475 0.1137E-02
     476 0.1148E-02
     477 0.1094E-02
     478 0.1119E-02
     479 0.1147E-02
     480 0.1077E-02
     481 0.1076E-02
     482 0.1071E-02
     483 0.1072E-02
     484 0.1068E-02
     485 0.1057E-02
     486 0.1098E-02
     487 0.1079E-02
     488 0.1098E-02
     489 0.1225E-02
     490 0.1095E-02
     491 0.1094E-02
     492 0.1069E-02
     493 0.1131E-02
     494 0.1082E-02
     495 0.1098E-02
     496 0.1402E-02
     497 0.1039E-02
     498 0.1036E-02
     499 0.1079E-02
     500 0.1083E-02
     501 0.1083E-02
NUMERICAL WARNING:: IterSolve: Failed convergence tolerances.
ComputeChange: NS (ITER=1) (NRM,RELC): ( 0.65354220E-03  2.0000000     ) :: helmholtz equation
HelmholtzSolve: iter:    1 Assembly: (s)   65.12   65.12
HelmholtzSolve: iter:    1 Solve:    (s)  192.60  192.60
HelmholtzSolve: 
HelmholtzSolve: -------------------------------------
HelmholtzSolve:  Helmholtz iteration           2
HelmholtzSolve:  Frequency (Hz):    27.501700000000000
HelmholtzSolve: -------------------------------------
HelmholtzSolve: 
HelmholtzSolve: Starting Assembly
HelmholtzSolve: Assembly:
: .................... 31%
: .................... 62%
: .................... 92%
: .....Assembly done
DefUtils::DefaultDirichletBCs: Setting Dirichlet boundary conditions
DefUtils::DefaultDirichletBCs: Dirichlet boundary conditions set
       1 0.1519E-01
       2 0.6154E-02
       3 0.3579E-02
       4 0.5605E-02
       5 0.1361E-01
       6 0.2798E-02
       7 0.3547E-02
       8 0.3087E-02
       9 0.1310E-01
      10 0.7986E-02
      11 0.1341E-02
      12 0.1257E-02
      13 0.1085E-02
      14 0.1033E-02
      15 0.1018E-02
      16 0.1032E-02
      17 0.1869E-02
      18 0.2001E-02
      19 0.2934E-02
      20 0.4972E-02
      21 0.1331E-02
      22 0.1247E-02
      23 0.2095E-02
      24 0.6425E-02
      25 0.4451E-02
      26 0.4083E-02
      27 0.3355E-02
      28 0.2584E-02
      29 0.3982E-02
      30 0.3791E-02
      31 0.4899E-02
      32 0.3595E-02
      33 0.1255E-01
      34 0.1041E-01
      35 0.8469E-02
      36 0.7317E-02
      37 0.4238E-02
      38 0.4708E-02
      39 0.5881E-02
      40 0.5036E-02
      41 0.5275E-02
      42 0.7355E-02
      43 0.3929E-02
      44 0.3096E-02
      45 0.3296E-02
      46 0.3402E-02
      47 0.3217E-02
      48 0.2908E-02
      49 0.2770E-02
      50 0.2484E-02
      51 0.2424E-02
      52 0.2344E-02
      53 0.2252E-02
      54 0.1608E-02
      55 0.1787E-02
      56 0.1436E-02
      57 0.1414E-02
      58 0.1442E-02
      59 0.1399E-02
      60 0.1378E-02
      61 0.1456E-02
      62 0.1546E-02
      63 0.1534E-02
      64 0.1460E-02
      65 0.1477E-02
      66 0.1512E-02
      67 0.2802E-02
      68 0.1748E-02
      69 0.1983E-02
      70 0.1812E-02
      71 0.1791E-02
      72 0.1785E-02
      73 0.1899E-02
      74 0.1925E-02
      75 0.1724E-02
      76 0.1489E-02
      77 0.1504E-02
      78 0.3888E-02
      79 0.7854E-02
      80 0.2181E-02
      81 0.1480E-02
      82 0.1560E-02
      83 0.1096E-02
      84 0.1061E-02
      85 0.1045E-02
      86 0.1041E-02
      87 0.1041E-02
      88 0.1041E-02
      89 0.1038E-02
      90 0.1091E-02
      91 0.1028E-02
      92 0.1019E-02
      93 0.1017E-02
      94 0.1011E-02
      95 0.1041E-02
      96 0.1035E-02
      97 0.1034E-02
      98 0.1030E-02
      99 0.1030E-02
     100 0.1041E-02
     101 0.1031E-02
     102 0.1021E-02
     103 0.1044E-02
     104 0.1034E-02
     105 0.1042E-02
     106 0.1031E-02
     107 0.1033E-02
     108 0.1042E-02
     109 0.1080E-02
     110 0.1110E-02
     111 0.1115E-02
     112 0.1087E-02
     113 0.1098E-02
     114 0.1076E-02
     115 0.1074E-02
     116 0.1064E-02
     117 0.1048E-02
     118 0.1339E-02
     119 0.1255E-02
     120 0.1179E-02
     121 0.1155E-02
     122 0.1267E-02
     123 0.1126E-02
     124 0.1100E-02
     125 0.1090E-02
     126 0.1084E-02
     127 0.1424E-02
     128 0.1249E-02
     129 0.1182E-02
     130 0.1642E-02
     131 0.1435E-02
     132 0.1261E-02
     133 0.2987E-02
     134 0.2528E-02
     135 0.2016E-02
     136 0.3224E-02
     137 0.2493E-02
     138 0.2055E-02
     139 0.1673E-02
     140 0.1293E-02
     141 0.1636E-02
     142 0.1217E-02
     143 0.1214E-02
     144 0.1303E-02
     145 0.1240E-02
     146 0.1222E-02
     147 0.1210E-02
     148 0.1185E-02
     149 0.1170E-02
     150 0.1160E-02
     151 0.1157E-02
     152 0.1154E-02
     153 0.1153E-02
     154 0.1161E-02
     155 0.1188E-02
     156 0.1178E-02
     157 0.1997E-02
     158 0.1768E-02
     159 0.3060E-02
     160 0.2425E-02
     161 0.2361E-02
     162 0.1835E-02
     163 0.1514E-02
     164 0.1681E-02
     165 0.1616E-02
     166 0.1529E-02
     167 0.1616E-02
     168 0.1515E-02
     169 0.1508E-02
     170 0.1577E-02
     171 0.1545E-02
     172 0.1532E-02
     173 0.1524E-02
     174 0.1541E-02
     175 0.2233E-02
     176 0.7953E-02
     177 0.6134E-02
     178 0.1776E-01
     179 0.1947E-02
     180 0.1774E-02
     181 0.1750E-02
     182 0.2951E-02
     183 0.2763E-02
     184 0.5430E-02
     185 0.5779E-02
     186 0.3356E-02
     187 0.3273E-02
     188 0.2421E-02
     189 0.2282E-02
     190 0.1792E-02
     191 0.1754E-02
     192 0.2012E-02
     193 0.1912E-02
     194 0.1775E-02
     195 0.1752E-02
     196 0.1759E-02
     197 0.2024E-02
     198 0.1722E-02
     199 0.1646E-02
     200 0.1633E-02
     201 0.2345E-02
     202 0.1873E-02
     203 0.2246E-02
     204 0.2700E-02
     205 0.2147E-02
     206 0.2147E-02
     207 0.2559E-02
     208 0.3078E-02
     209 0.2140E-02
     210 0.1988E-02
     211 0.1978E-02
     212 0.2189E-02
     213 0.1914E-02
     214 0.1708E-02
     215 0.1633E-02
     216 0.1700E-02
     217 0.1694E-02
     218 0.1733E-02
     219 0.1705E-02
     220 0.1775E-02
     221 0.3347E-02
     222 0.6188E-02
     223 0.3365E-02
     224 0.5347E-02
     225 0.3083E-02
     226 0.3270E-02
     227 0.2036E-02
     228 0.1846E-02
     229 0.1919E-02
     230 0.1758E-02
     231 0.1885E-02
     232 0.1865E-02
     233 0.1865E-02
     234 0.1851E-02
     235 0.1885E-02
     236 0.1903E-02
     237 0.1860E-02
     238 0.2074E-02
     239 0.2015E-02
     240 0.3666E-01
     241 0.2051E-02
     242 0.2140E-02
     243 0.2202E-02
     244 0.2213E-02
     245 0.2455E-02
     246 0.2232E-02
     247 0.2327E-02
     248 0.1977E-02
     249 0.1837E-02
     250 0.1842E-02
     251 0.1859E-02
     252 0.1794E-02
     253 0.1811E-02
     254 0.1737E-02
     255 0.1749E-02
     256 0.1752E-02
     257 0.1772E-02
     258 0.1820E-02
     259 0.1261E-02
     260 0.2291E-02
     261 0.2000E-02
     262 0.1559E-02
     263 0.1638E-02
     264 0.1518E-02
     265 0.1865E-02
     266 0.1457E-02
     267 0.1645E-02
     268 0.1492E-02
     269 0.2133E-02
     270 0.1397E-02
     271 0.1402E-02
     272 0.1724E-02
     273 0.1575E-02
     274 0.1421E-02
     275 0.1379E-02
     276 0.1380E-02
     277 0.1370E-02
     278 0.1363E-02
     279 0.1625E-02
     280 0.1953E-02
     281 0.1468E-02
     282 0.1394E-02
     283 0.1828E-02
     284 0.1817E-02
     285 0.1677E-02
     286 0.1676E-02
     287 0.1777E-02
     288 0.1624E-02
     289 0.1655E-02
     290 0.1568E-02
     291 0.2302E-02
     292 0.1515E-02
     293 0.2079E-02
     294 0.2077E-02
     295 0.1864E-02
     296 0.1255E-02
     297 0.1248E-02
     298 0.1183E-02
     299 0.1251E-02
     300 0.1628E-02
     301 0.1457E-02
     302 0.1344E-02
     303 0.1337E-02
     304 0.1327E-02
     305 0.1373E-02
     306 0.1454E-02
     307 0.1194E-02
     308 0.1132E-02
     309 0.1133E-02
     310 0.1090E-02
     311 0.1093E-02
     312 0.2384E-02
     313 0.2401E-02
     314 0.9737E-02
     315 0.2234E-02
     316 0.1927E-02
     317 0.1500E-02
     318 0.1499E-02
     319 0.1759E-02
     320 0.1452E-02
     321 0.1904E-02
     322 0.1837E-02
     323 0.1929E-02
     324 0.1045E-02
     325 0.1056E-02
     326 0.8261E-03
     327 0.9002E-03
     328 0.9217E-03
     329 0.9136E-03
     330 0.9839E-03
     331 0.9208E-03
     332 0.9112E-03
     333 0.9068E-03
     334 0.8966E-03
     335 0.1051E-02
     336 0.9712E-03
     337 0.9177E-03
     338 0.1098E-02
     339 0.1001E-02
     340 0.1005E-02
     341 0.9968E-03
     342 0.1042E-02
     343 0.1043E-02
     344 0.8750E-03
     345 0.9174E-03
     346 0.9292E-03
     347 0.8802E-03
     348 0.8681E-03
     349 0.8483E-03
     350 0.8390E-03
     351 0.8175E-03
     352 0.7706E-03
     353 0.7716E-03
     354 0.7928E-03
     355 0.7905E-03
     356 0.7787E-03
     357 0.7309E-03
     358 0.6991E-03
     359 0.7700E-03
     360 0.7764E-03
     361 0.7799E-03
     362 0.7632E-03
     363 0.7641E-03
     364 0.7086E-03
     365 0.7231E-03
     366 0.7320E-03
     367 0.6986E-03
     368 0.7015E-03
     369 0.6829E-03
     370 0.6048E-03
     371 0.5649E-03
     372 0.6067E-03
     373 0.5946E-03
     374 0.7583E-03
     375 0.5833E-03
     376 0.5776E-03
     377 0.5614E-03
     378 0.5606E-03
     379 0.5667E-03
     380 0.5534E-03
     381 0.5393E-03
     382 0.5368E-03
     383 0.5354E-03
     384 0.5338E-03
     385 0.5567E-03
     386 0.5401E-03
     387 0.5260E-03
     388 0.5065E-03
     389 0.5373E-03
     390 0.1066E-02
     391 0.7618E-03
     392 0.7512E-03
     393 0.7034E-03
     394 0.6535E-03
     395 0.7213E-03
     396 0.6476E-03
     397 0.6225E-03
     398 0.6488E-03
     399 0.6346E-03
     400 0.6440E-03
     401 0.6559E-03
     402 0.1490E-02
     403 0.8722E-03
     404 0.9233E-03
     405 0.7636E-03
     406 0.6977E-03
     407 0.6896E-03
     408 0.6802E-03
     409 0.6752E-03
     410 0.1166E-02
     411 0.7172E-03
     412 0.6452E-03
     413 0.6123E-03
     414 0.6597E-03
     415 0.6469E-03
     416 0.6962E-03
     417 0.5816E-03
     418 0.5924E-03
     419 0.7443E-03
     420 0.6147E-03
     421 0.6098E-03
     422 0.5881E-03
     423 0.5781E-03
     424 0.5893E-03
     425 0.5917E-03
     426 0.5757E-03
     427 0.7973E-03
     428 0.7305E-03
     429 0.6372E-03
     430 0.5891E-03
     431 0.6542E-03
     432 0.6341E-03
     433 0.5854E-03
     434 0.5495E-03
     435 0.5699E-03
     436 0.4979E-03
     437 0.5140E-03
     438 0.6582E-03
     439 0.5715E-03
     440 0.6152E-03
     441 0.5179E-03
     442 0.5689E-03
     443 0.4637E-03
     444 0.6690E-03
     445 0.3639E-03
     446 0.3509E-03
     447 0.3437E-03
     448 0.3171E-03
     449 0.3208E-03
     450 0.3215E-03
     451 0.4627E-03
     452 0.4518E-03
     453 0.3663E-03
     454 0.3849E-03
     455 0.3772E-03
     456 0.3861E-03
     457 0.3695E-03
     458 0.3721E-03
     459 0.3975E-03
     460 0.3839E-03
     461 0.3974E-03
     462 0.3806E-03
     463 0.3539E-03
     464 0.4529E-03
     465 0.4013E-03
     466 0.5136E-03
     467 0.4751E-03
     468 0.3968E-03
     469 0.3817E-03
     470 0.3472E-03
     471 0.3824E-03
     472 0.3626E-03
     473 0.3570E-03
     474 0.6649E-03
     475 0.1446E-02
     476 0.4090E-03
     477 0.4299E-03
     478 0.3859E-03
     479 0.3665E-03
     480 0.3940E-03
     481 0.3816E-03
     482 0.4045E-03
     483 0.3324E-03
     484 0.3401E-03
     485 0.3302E-03
     486 0.3193E-03
     487 0.3089E-03
     488 0.3610E-03
     489 0.4484E-03
     490 0.4271E-03
     491 0.5430E-03
     492 0.5257E-03
     493 0.4465E-03
     494 0.2867E-03
     495 0.2571E-03
     496 0.1550E-02
     497 0.8543E-03
     498 0.5405E-03
     499 0.2970E-03
     500 0.3167E-03
     501 0.3167E-03
NUMERICAL WARNING:: IterSolve: Failed convergence tolerances.
ComputeChange: NS (ITER=2) (NRM,RELC): ( 0.65900293E-03 0.83208260E-02 ) :: helmholtz equation
HelmholtzSolve: iter:    2 Assembly: (s)   65.62  130.73
HelmholtzSolve: iter:    2 Solve:    (s)  187.73  380.34
HelmholtzSolve: 
HelmholtzSolve: -------------------------------------
HelmholtzSolve:  Helmholtz iteration           3
HelmholtzSolve:  Frequency (Hz):    27.501700000000000
HelmholtzSolve: -------------------------------------
HelmholtzSolve: 
HelmholtzSolve: Starting Assembly
HelmholtzSolve: Assembly:
: .................... 57%
: ...............Assembly done
DefUtils::DefaultDirichletBCs: Setting Dirichlet boundary conditions
DefUtils::DefaultDirichletBCs: Dirichlet boundary conditions set
       1 0.8580E-02
       2 0.3284E-02
       3 0.1679E-02
       4 0.1184E-02
       5 0.8604E-02
       6 0.3143E-03
       7 0.3903E-03
       8 0.2687E-03
       9 0.2708E-03
      10 0.3781E-03
      11 0.6873E-03
      12 0.6820E-03
      13 0.1128E-02
      14 0.1135E-02
      15 0.1161E-02
      16 0.1193E-02
      17 0.1666E-02
      18 0.2043E-02
      19 0.1415E-02
      20 0.9241E-02
      21 0.3615E-02
      22 0.4409E-02
      23 0.1650E-02
      24 0.1775E-02
      25 0.1756E-02
      26 0.9317E-03
      27 0.3252E-02
      28 0.3146E-02
      29 0.2609E-02
      30 0.2620E-02
      31 0.2572E-02
      32 0.5403E-02
      33 0.4387E-02
      34 0.2452E-02
      35 0.1730E-02
      36 0.1066E-02
      37 0.1412E-02
      38 0.1751E-02
      39 0.1661E-02
      40 0.2371E-02
      41 0.1941E-02
      42 0.1927E-02
      43 0.1988E-02
      44 0.4616E-02
      45 0.3495E-02
      46 0.3940E-02
      47 0.4194E-02
      48 0.3970E-02
      49 0.6652E-02
      50 0.7796E-02
      51 0.1379E-01
      52 0.3969E-01
      53 0.3851E-01
      54 0.1720E-01
      55 0.1503E-01
      56 0.1069E-01
      57 0.6688E-02
      58 0.4342E-02
      59 0.1726E-02
      60 0.1552E-02
      61 0.1685E-02
      62 0.1376E-02
      63 0.1433E-02
      64 0.8830E-03
      65 0.8967E-03
      66 0.6671E-03
      67 0.5660E-03
      68 0.4232E-03
      69 0.5493E-03
      70 0.7513E-03
      71 0.4040E-03
      72 0.1319E-02
      73 0.4249E-03
      74 0.3860E-03
      75 0.4689E-03
      76 0.3599E-03
      77 0.2532E-03
      78 0.2911E-03
      79 0.1187E-02
      80 0.2809E-03
      81 0.2855E-03
      82 0.2581E-03
      83 0.2318E-03
      84 0.2690E-03
      85 0.2718E-03
      86 0.2838E-03
      87 0.2871E-03
      88 0.2847E-03
      89 0.2378E-03
      90 0.2369E-03
      91 0.2831E-03
      92 0.2832E-03
      93 0.3075E-03
      94 0.2772E-03
      95 0.2671E-03
      96 0.2533E-03
      97 0.2352E-03
      98 0.2183E-03
      99 0.2136E-03
     100 0.2037E-03
     101 0.1979E-03
     102 0.1982E-03
     103 0.1943E-03
     104 0.1904E-03
     105 0.1982E-03
     106 0.2117E-03
     107 0.2181E-03
     108 0.2169E-03
     109 0.2156E-03
     110 0.1999E-03
     111 0.3892E-03
     112 0.2518E-03
     113 0.2000E-03
     114 0.4133E-03
     115 0.4760E-03
     116 0.1108E-02
     117 0.1822E-02
     118 0.7850E-03
     119 0.8797E-03
     120 0.8549E-03
     121 0.9853E-03
     122 0.1112E-02
     123 0.9871E-03
     124 0.7573E-02
     125 0.6926E-03
     126 0.4699E-03
     127 0.3889E-03
     128 0.4622E-03
     129 0.4549E-03
     130 0.6253E-03
     131 0.4031E-03
     132 0.2001E-02
     133 0.1669E-02
     134 0.1518E-02
     135 0.7847E-03
     136 0.4658E-03
     137 0.9170E-03
     138 0.5180E-03
     139 0.4220E-03
     140 0.3117E-03
     141 0.3050E-03
     142 0.2179E-02
     143 0.1055E-02
     144 0.1032E-02
     145 0.7944E-03
     146 0.1116E-02
     147 0.1590E-02
     148 0.1890E-02
     149 0.1751E-02
     150 0.1590E-02
     151 0.8769E-03
     152 0.7506E-03
     153 0.5418E-03
     154 0.2770E-03
     155 0.2907E-03
     156 0.2657E-03
     157 0.2999E-03
     158 0.9754E-03
     159 0.2460E-03
     160 0.1271E-03
     161 0.1340E-03
     162 0.1313E-03
     163 0.1371E-03
     164 0.1354E-03
     165 0.1338E-03
     166 0.1385E-03
     167 0.1245E-03
     168 0.1028E-03
     169 0.1067E-03
     170 0.1405E-03
     171 0.1492E-03
     172 0.1914E-03
     173 0.2398E-03
     174 0.2378E-03
     175 0.2454E-03
     176 0.1365E-03
     177 0.1576E-03
     178 0.1394E-03
     179 0.1625E-03
     180 0.1167E-03
     181 0.1091E-03
     182 0.1059E-03
     183 0.1024E-03
     184 0.1537E-03
     185 0.8823E-04
     186 0.9908E-04
     187 0.8776E-04
     188 0.8603E-04
     189 0.1076E-03
     190 0.6652E-04
     191 0.6586E-04
     192 0.6511E-04
     193 0.1007E-03
     194 0.5748E-04
     195 0.8591E-04
     196 0.6575E-04
     197 0.6211E-04
     198 0.5897E-04
     199 0.5860E-04
     200 0.1366E-03
     201 0.1561E-03
     202 0.5433E-04
     203 0.4668E-04
     204 0.4654E-04
     205 0.4915E-04
     206 0.4825E-04
     207 0.4902E-04
     208 0.4772E-04
     209 0.5525E-04
     210 0.5384E-04
     211 0.5263E-04
     212 0.5089E-04
     213 0.4657E-04
     214 0.4338E-04
     215 0.4240E-04
     216 0.4453E-04
     217 0.4696E-04
     218 0.4331E-04
     219 0.3983E-04
     220 0.3901E-04
     221 0.4880E-04
     222 0.5558E-04
     223 0.7522E-04
     224 0.8577E-04
     225 0.1328E-03
     226 0.4425E-04
     227 0.5565E-04
     228 0.6788E-04
     229 0.7144E-04
     230 0.4746E-04
     231 0.4555E-04
     232 0.3939E-04
     233 0.4273E-04
     234 0.4316E-04
     235 0.4295E-04
     236 0.6476E-04
     237 0.4410E-04
     238 0.4315E-04
     239 0.4762E-04
     240 0.4826E-04
     241 0.5190E-04
     242 0.5091E-04
     243 0.5142E-04
     244 0.6275E-04
     245 0.5764E-04
     246 0.5382E-04
     247 0.5519E-04
     248 0.5870E-04
     249 0.5887E-04
     250 0.5444E-04
     251 0.5398E-04
     252 0.5375E-04
     253 0.5362E-04
     254 0.5303E-04
     255 0.5231E-04
     256 0.1380E-03
     257 0.5248E-04
     258 0.5255E-04
     259 0.5199E-04
     260 0.5039E-04
     261 0.6418E-04
     262 0.6395E-04
     263 0.6492E-04
     264 0.8105E-04
     265 0.6209E-04
     266 0.6360E-04
     267 0.6214E-04
     268 0.6167E-04
     269 0.6213E-04
     270 0.8414E-04
     271 0.7290E-04
     272 0.7290E-04
     273 0.7612E-04
     274 0.7309E-04
     275 0.7666E-04
     276 0.8226E-04
     277 0.6100E-04
     278 0.6184E-04
     279 0.6114E-04
     280 0.6182E-04
     281 0.8587E-04
     282 0.8191E-04
     283 0.8032E-04
     284 0.7970E-04
     285 0.7679E-04
     286 0.8337E-04
     287 0.9356E-04
     288 0.1184E-03
     289 0.1120E-03
     290 0.9953E-04
     291 0.8634E-04
     292 0.7080E-04
     293 0.6988E-04
     294 0.6944E-04
     295 0.6378E-04
     296 0.6243E-04
     297 0.7616E-04
     298 0.7221E-04
     299 0.5842E-04
     300 0.5572E-04
     301 0.5363E-04
     302 0.5481E-04
     303 0.5163E-04
     304 0.4557E-04
     305 0.4520E-04
     306 0.4482E-04
     307 0.4489E-04
     308 0.4463E-04
     309 0.4399E-04
     310 0.4597E-04
     311 0.4452E-04
     312 0.4583E-04
     313 0.4432E-04
     314 0.4454E-04
     315 0.4583E-04
     316 0.4717E-04
     317 0.4727E-04
     318 0.4623E-04
     319 0.4550E-04
     320 0.5602E-04
     321 0.4711E-04
     322 0.4717E-04
     323 0.4655E-04
     324 0.4605E-04
     325 0.4693E-04
     326 0.5146E-04
     327 0.4973E-04
     328 0.4685E-04
     329 0.1668E-03
     330 0.8118E-04
     331 0.8179E-04
     332 0.7789E-04
     333 0.7345E-04
     334 0.1966E-03
     335 0.9251E-04
     336 0.8782E-04
     337 0.8618E-04
     338 0.1001E-03
     339 0.6092E-04
     340 0.6242E-04
     341 0.6266E-04
     342 0.5502E-04
     343 0.6206E-04
     344 0.6426E-04
     345 0.5575E-04
     346 0.5670E-04
     347 0.5302E-04
     348 0.5513E-04
     349 0.5210E-04
     350 0.5435E-04
     351 0.4997E-04
     352 0.5286E-04
     353 0.9650E-04
     354 0.5016E-04
     355 0.4944E-04
     356 0.4892E-04
     357 0.4763E-04
     358 0.4693E-04
     359 0.4678E-04
     360 0.5032E-04
     361 0.4756E-04
     362 0.6012E-04
     363 0.4924E-04
     364 0.4752E-04
     365 0.4740E-04
     366 0.4614E-04
     367 0.4853E-04
     368 0.4588E-04
     369 0.7372E-04
     370 0.5598E-04
     371 0.5147E-04
     372 0.5278E-04
     373 0.5454E-04
     374 0.6593E-04
     375 0.5125E-04
     376 0.5006E-04
     377 0.4942E-04
     378 0.5116E-04
     379 0.5167E-04
     380 0.5064E-04
     381 0.5134E-04
     382 0.4627E-04
     383 0.4808E-04
     384 0.4980E-04
     385 0.4970E-04
     386 0.4708E-04
     387 0.4608E-04
     388 0.4631E-04
     389 0.4646E-04
     390 0.1027E-03
     391 0.7585E-04
     392 0.5972E-04
     393 0.5729E-04
     394 0.8518E-04
     395 0.1099E-03
     396 0.9521E-04
     397 0.2736E-03
     398 0.2544E-03
     399 0.2886E-03
     400 0.3507E-03
     401 0.1870E-03
     402 0.2551E-03
     403 0.1390E-03
     404 0.1417E-03
     405 0.1310E-03
     406 0.1464E-03
     407 0.1410E-03
     408 0.1689E-03
     409 0.1595E-03
     410 0.1413E-03
     411 0.1997E-03
     412 0.9116E-03
     413 0.1670E-03
     414 0.1743E-03
     415 0.8159E-04
     416 0.8545E-04
     417 0.8261E-04
     418 0.8401E-04
     419 0.1015E-03
     420 0.9412E-04
     421 0.2006E-03
     422 0.1264E-03
     423 0.9825E-04
     424 0.1041E-03
     425 0.8995E-04
     426 0.8145E-04
     427 0.7589E-04
     428 0.7345E-04
     429 0.6414E-04
     430 0.6014E-04
     431 0.4138E-04
     432 0.1013E-03
     433 0.7922E-04
     434 0.6968E-04
     435 0.6683E-04
     436 0.5687E-04
     437 0.5443E-04
     438 0.5423E-04
     439 0.5355E-04
     440 0.5719E-04
     441 0.5696E-04
     442 0.5909E-04
     443 0.6202E-04
     444 0.7145E-04
     445 0.1292E-03
     446 0.1182E-03
     447 0.7816E-04
     448 0.7660E-04
     449 0.8588E-04
     450 0.6588E-04
     451 0.6344E-04
     452 0.5976E-04
     453 0.5499E-04
     454 0.6030E-04
     455 0.6233E-04
     456 0.6552E-04
     457 0.4953E-04
     458 0.8784E-04
     459 0.1045E-03
     460 0.1122E-03
     461 0.1145E-03
     462 0.1348E-03
     463 0.2020E-03
     464 0.3324E-03
     465 0.4767E-03
     466 0.4272E-03
     467 0.3596E-03
     468 0.3814E-03
     469 0.3866E-03
     470 0.2728E-03
     471 0.2111E-03
     472 0.1725E-03
     473 0.1291E-03
     474 0.1149E-03
     475 0.1032E-03
     476 0.1906E-03
     477 0.1578E-03
     478 0.1033E-03
     479 0.1260E-03
     480 0.1326E-03
     481 0.1308E-03
     482 0.1266E-03
     483 0.1360E-03
     484 0.1313E-03
     485 0.1323E-03
     486 0.1335E-03
     487 0.1320E-03
     488 0.1057E-03
     489 0.7718E-04
     490 0.7067E-04
     491 0.7055E-04
     492 0.9959E-04
     493 0.1003E-03
     494 0.4659E-03
     495 0.1738E-03
     496 0.8877E-04
     497 0.7687E-04
     498 0.6330E-04
     499 0.4034E-04
     500 0.3860E-04
     501 0.3860E-04
NUMERICAL WARNING:: IterSolve: Failed convergence tolerances.
ComputeChange: NS (ITER=3) (NRM,RELC): ( 0.65876974E-03 0.35390964E-03 ) :: helmholtz equation
HelmholtzSolve: iter:    3 Assembly: (s)   35.70  166.43
HelmholtzSolve: iter:    3 Solve:    (s)  181.84  562.18
HelmholtzSolve: 
HelmholtzSolve: -------------------------------------
HelmholtzSolve:  Helmholtz iteration           4
HelmholtzSolve:  Frequency (Hz):    27.501700000000000
HelmholtzSolve: -------------------------------------
HelmholtzSolve: 
HelmholtzSolve: Starting Assembly
HelmholtzSolve: Assembly:
: .................... 58%
: ..............Assembly done
DefUtils::DefaultDirichletBCs: Setting Dirichlet boundary conditions
DefUtils::DefaultDirichletBCs: Dirichlet boundary conditions set
       1 0.5950E-03
       2 0.1168E-02
       3 0.7714E-03
       4 0.7389E-03
       5 0.2112E-03
       6 0.2010E-03
       7 0.1812E-03
       8 0.1637E-03
       9 0.1689E-03
      10 0.1423E-03
      11 0.1361E-03
      12 0.1263E-03
      13 0.1314E-03
      14 0.2050E-03
      15 0.6292E-04
      16 0.5991E-04
      17 0.2184E-03
      18 0.4111E-03
      19 0.3950E-03
      20 0.2490E-03
      21 0.2523E-03
      22 0.3646E-03
      23 0.1971E-03
      24 0.1471E-03
      25 0.2459E-03
      26 0.1314E-03
      27 0.1099E-03
      28 0.9853E-04
      29 0.9689E-04
      30 0.9634E-04
      31 0.9692E-04
      32 0.8492E-04
      33 0.7366E-04
      34 0.8183E-04
      35 0.1113E-03
      36 0.1439E-03
      37 0.2249E-03
      38 0.1356E-03
      39 0.9059E-04
      40 0.1055E-03
      41 0.8309E-04
      42 0.7350E-04
      43 0.1427E-03
      44 0.7696E-04
      45 0.6249E-04
      46 0.7149E-04
      47 0.6213E-04
      48 0.6463E-04
      49 0.6392E-04
      50 0.7626E-04
      51 0.6551E-04
      52 0.5481E-04
      53 0.8378E-04
      54 0.8602E-04
      55 0.8808E-04
      56 0.9685E-04
      57 0.7196E-04
      58 0.5558E-04
      59 0.5345E-04
      60 0.5820E-04
      61 0.5351E-04
      62 0.6397E-04
      63 0.9166E-04
      64 0.9227E-04
      65 0.8760E-04
      66 0.2990E-04
      67 0.2812E-04
      68 0.7735E-04
      69 0.5433E-04
      70 0.4124E-04
      71 0.3139E-04
      72 0.2892E-04
      73 0.2705E-04
      74 0.2850E-04
      75 0.2555E-04
      76 0.2584E-04
      77 0.2506E-04
      78 0.2509E-04
      79 0.2507E-04
      80 0.2522E-04
      81 0.2512E-04
      82 0.2746E-04
      83 0.3194E-04
      84 0.3366E-04
      85 0.3276E-04
      86 0.4131E-04
      87 0.3762E-04
      88 0.3751E-04
      89 0.4150E-04
      90 0.6148E-04
      91 0.7375E-04
      92 0.6002E-04
      93 0.6543E-04
      94 0.3734E-04
      95 0.4090E-04
      96 0.1336E-03
      97 0.4522E-04
      98 0.5285E-04
      99 0.4856E-04
     100 0.5498E-04
     101 0.5782E-04
     102 0.6023E-04
     103 0.9094E-04
     104 0.1074E-03
     105 0.1589E-03
     106 0.1666E-03
     107 0.4748E-04
     108 0.1001E-03
     109 0.8113E-04
     110 0.7875E-04
     111 0.8385E-04
     112 0.5648E-04
     113 0.5601E-04
     114 0.6154E-04
     115 0.6124E-04
     116 0.6005E-04
     117 0.5165E-04
     118 0.4725E-04
     119 0.4601E-04
     120 0.4456E-04
     121 0.4479E-04
     122 0.4446E-04
     123 0.4630E-04
     124 0.4256E-04
     125 0.4198E-04
     126 0.3895E-04
     127 0.3761E-04
     128 0.3818E-04
     129 0.3912E-04
     130 0.3904E-04
     131 0.3845E-04
     132 0.3640E-04
     133 0.3830E-04
     134 0.3800E-04
     135 0.3788E-04
     136 0.3730E-04
     137 0.3718E-04
     138 0.3710E-04
     139 0.3718E-04
     140 0.3704E-04
     141 0.3691E-04
     142 0.3693E-04
     143 0.3963E-04
     144 0.3996E-04
     145 0.4036E-04
     146 0.3929E-04
     147 0.4665E-04
     148 0.4975E-04
     149 0.4138E-04
     150 0.4529E-04
     151 0.4335E-04
     152 0.4069E-04
     153 0.4140E-04
     154 0.4114E-04
     155 0.4101E-04
     156 0.4234E-04
     157 0.4239E-04
     158 0.4244E-04
     159 0.4280E-04
     160 0.5927E-04
     161 0.5329E-04
     162 0.4498E-04
     163 0.4328E-04
     164 0.4347E-04
     165 0.4362E-04
     166 0.4395E-04
     167 0.4323E-04
     168 0.4323E-04
     169 0.4479E-04
     170 0.4351E-04
     171 0.4394E-04
     172 0.3986E-04
     173 0.3888E-04
     174 0.4127E-04
     175 0.9281E-04
     176 0.4677E-04
     177 0.4069E-04
     178 0.4149E-04
     179 0.4154E-04
     180 0.4429E-04
     181 0.4536E-04
     182 0.1005E-03
     183 0.1197E-03
     184 0.8009E-04
     185 0.4577E-04
     186 0.4363E-04
     187 0.4467E-04
     188 0.3951E-04
     189 0.3971E-04
     190 0.3560E-04
     191 0.3844E-04
     192 0.3586E-04
     193 0.3623E-04
     194 0.3477E-04
     195 0.4229E-04
     196 0.3927E-04
     197 0.3839E-04
     198 0.3855E-04
     199 0.3780E-04
     200 0.3699E-04
     201 0.3663E-04
     202 0.4893E-04
     203 0.4802E-04
     204 0.3823E-04
     205 0.3778E-04
     206 0.3748E-04
     207 0.3977E-04
     208 0.4292E-04
     209 0.4063E-04
     210 0.3873E-04
     211 0.3858E-04
     212 0.3852E-04
     213 0.3943E-04
     214 0.4044E-04
     215 0.3901E-04
     216 0.4734E-04
     217 0.4777E-04
     218 0.4735E-04
     219 0.5073E-04
     220 0.4674E-04
     221 0.5580E-04
     222 0.6294E-04
     223 0.5791E-04
     224 0.6135E-04
     225 0.5635E-04
     226 0.5807E-04
     227 0.6179E-04
     228 0.7525E-04
     229 0.6574E-04
     230 0.6457E-04
     231 0.7825E-04
     232 0.6615E-04
     233 0.6527E-04
     234 0.6474E-04
     235 0.6323E-04
     236 0.6273E-04
     237 0.6163E-04
     238 0.5998E-04
     239 0.5937E-04
     240 0.7111E-04
     241 0.6374E-04
     242 0.6324E-04
     243 0.6037E-04
     244 0.6024E-04
     245 0.6630E-04
     246 0.6273E-04
     247 0.5737E-04
     248 0.5731E-04
     249 0.7988E-04
     250 0.7779E-04
     251 0.6190E-04
     252 0.5574E-04
     253 0.8032E-04
     254 0.6764E-04
     255 0.6270E-04
     256 0.6695E-04
     257 0.6744E-04
     258 0.7038E-04
     259 0.8456E-04
     260 0.9115E-04
     261 0.8825E-04
     262 0.8952E-04
     263 0.8704E-04
     264 0.9131E-04
     265 0.9324E-04
     266 0.9092E-04
     267 0.7015E-04
     268 0.4436E-04
     269 0.4329E-04
     270 0.3477E-04
     271 0.4430E-04
     272 0.3523E-04
     273 0.9253E-04
     274 0.2109E-03
     275 0.6507E-04
     276 0.8183E-04
     277 0.1234E-03
     278 0.5823E-04
     279 0.5639E-04
     280 0.5814E-04
     281 0.5295E-04
     282 0.5217E-04
     283 0.5029E-04
     284 0.4992E-04
     285 0.5211E-04
     286 0.5558E-04
     287 0.5754E-04
     288 0.5068E-04
     289 0.5221E-04
     290 0.5100E-04
     291 0.5310E-04
     292 0.4141E-04
     293 0.7177E-04
     294 0.6803E-04
     295 0.6521E-04
     296 0.3061E-04
     297 0.8958E-04
     298 0.5622E-04
     299 0.7955E-04
     300 0.1154E-03
     301 0.1467E-03
     302 0.1561E-03
     303 0.1631E-03
     304 0.1445E-03
     305 0.1341E-03
     306 0.1267E-03
     307 0.1392E-03
     308 0.1629E-03
     309 0.2100E-03
     310 0.1358E-03
     311 0.1594E-03
     312 0.1123E-03
     313 0.1089E-03
     314 0.1015E-03
     315 0.1508E-03
     316 0.5567E-03
     317 0.8479E-04
     318 0.8093E-04
     319 0.1108E-03
     320 0.1129E-03
     321 0.5460E-04
     322 0.4119E-04
     323 0.6054E-04
     324 0.4583E-04
     325 0.3666E-04
     326 0.3597E-04
     327 0.3152E-04
     328 0.3887E-04
     329 0.2950E-04
     330 0.3016E-04
     331 0.3032E-04
     332 0.3536E-04
     333 0.3267E-04
     334 0.3237E-04
     335 0.3751E-04
     336 0.2554E-04
     337 0.2397E-04
     338 0.2468E-04
     339 0.2457E-04
     340 0.2788E-04
     341 0.3424E-04
     342 0.2362E-04
     343 0.2382E-04
     344 0.2244E-04
     345 0.2297E-04
     346 0.2281E-04
     347 0.2199E-04
     348 0.2716E-04
     349 0.2307E-04
     350 0.2136E-04
     351 0.2109E-04
     352 0.2094E-04
     353 0.2124E-04
     354 0.2163E-04
     355 0.2165E-04
     356 0.2179E-04
     357 0.2094E-04
     358 0.1998E-04
     359 0.2297E-04
     360 0.2123E-04
     361 0.2117E-04
     362 0.2099E-04
     363 0.2081E-04
     364 0.2169E-04
     365 0.1055E-03
     366 0.3689E-04
     367 0.1975E-04
     368 0.1639E-04
     369 0.1499E-04
     370 0.1389E-04
     371 0.1406E-04
     372 0.1402E-04
     373 0.1352E-04
     374 0.1418E-04
     375 0.1356E-04
     376 0.1767E-04
     377 0.1487E-04
     378 0.1477E-04
     379 0.1469E-04
     380 0.1497E-04
     381 0.1432E-04
     382 0.1454E-04
     383 0.1413E-04
     384 0.1409E-04
     385 0.1431E-04
     386 0.1404E-04
     387 0.1389E-04
     388 0.1435E-04
     389 0.1402E-04
     390 0.1448E-04
     391 0.1355E-04
     392 0.1316E-04
     393 0.1349E-04
     394 0.1310E-04
     395 0.1309E-04
     396 0.1292E-04
     397 0.1384E-04
     398 0.1359E-04
     399 0.1459E-04
     400 0.2225E-04
     401 0.2702E-04
     402 0.2676E-04
     403 0.2459E-04
     404 0.1799E-04
     405 0.1682E-04
     406 0.1670E-04
     407 0.1678E-04
     408 0.1866E-04
     409 0.1831E-04
     410 0.1658E-04
     411 0.2656E-04
     412 0.2434E-04
     413 0.1220E-04
     414 0.1167E-04
     415 0.2066E-04
     416 0.1458E-04
     417 0.1591E-04
     418 0.1075E-04
     419 0.1244E-04
     420 0.1710E-04
     421 0.1711E-04
     422 0.1648E-04
     423 0.1491E-04
     424 0.1558E-04
     425 0.1147E-04
     426 0.1300E-04
     427 0.4740E-04
     428 0.5653E-04
     429 0.2697E-04
     430 0.4551E-04
     431 0.1958E-04
     432 0.1398E-04
     433 0.1226E-04
     434 0.1218E-04
     435 0.1289E-04
     436 0.1027E-04
     437 0.8813E-05
     438 0.9437E-05
     439 0.1020E-04
     440 0.1124E-04
     441 0.1388E-04
     442 0.1181E-04
     443 0.1170E-04
     444 0.1898E-04
     445 0.7288E-05
     446 0.8158E-05
     447 0.8130E-05
     448 0.7802E-05
     449 0.2370E-04
     450 0.9626E-05
     451 0.1054E-04
     452 0.6416E-05
     453 0.7014E-05
     454 0.6959E-05
     455 0.9674E-05
     456 0.1027E-04
     457 0.9305E-05
     458 0.7788E-04
     459 0.6608E-04
     460 0.7399E-04
     461 0.7063E-04
     462 0.5980E-04
     463 0.3618E-04
     464 0.3934E-04
     465 0.3984E-04
     466 0.2957E-04
     467 0.1255E-03
     468 0.2526E-04
     469 0.2163E-04
     470 0.2356E-04
     471 0.2422E-04
     472 0.2470E-04
     473 0.2602E-04
     474 0.2100E-04
     475 0.3705E-04
     476 0.3891E-04
     477 0.4201E-04
     478 0.2883E-04
     479 0.2808E-04
     480 0.7863E-04
     481 0.6030E-04
     482 0.5278E-04
     483 0.4412E-04
     484 0.5853E-04
     485 0.3506E-04
     486 0.3876E-04
     487 0.1665E-04
     488 0.1340E-04
     489 0.1091E-04
     490 0.1085E-04
     491 0.8802E-05
     492 0.8719E-05
     493 0.8867E-05
     494 0.8653E-05
     495 0.2847E-04
     496 0.5678E-04
     497 0.1349E-04
     498 0.1471E-04
     499 0.1364E-04
     500 0.1392E-04
     501 0.1392E-04
NUMERICAL WARNING:: IterSolve: Failed convergence tolerances.
ComputeChange: NS (ITER=4) (NRM,RELC): ( 0.65870668E-03 0.95733889E-04 ) :: helmholtz equation
HelmholtzSolve: iter:    4 Assembly: (s)   35.36  201.78
HelmholtzSolve: iter:    4 Solve:    (s)  180.70  742.88
HelmholtzSolve: 
HelmholtzSolve: -------------------------------------
HelmholtzSolve:  Helmholtz iteration           5
HelmholtzSolve:  Frequency (Hz):    27.501700000000000
HelmholtzSolve: -------------------------------------
HelmholtzSolve: 
HelmholtzSolve: Starting Assembly
HelmholtzSolve: Assembly:
: .................... 58%
: ..............Assembly done
DefUtils::DefaultDirichletBCs: Setting Dirichlet boundary conditions
DefUtils::DefaultDirichletBCs: Dirichlet boundary conditions set
       1 0.4349E-03
       2 0.7379E-03
       3 0.1059E-03
       4 0.5179E-04
       5 0.4179E-04
       6 0.1309E-03
       7 0.1844E-03
       8 0.1641E-03
       9 0.8921E-04
      10 0.5894E-04
      11 0.4576E-04
      12 0.4512E-04
      13 0.3976E-04
      14 0.5961E-04
      15 0.5302E-04
      16 0.4393E-04
      17 0.7042E-04
      18 0.5568E-04
      19 0.4553E-04
      20 0.4447E-04
      21 0.3945E-04
      22 0.3682E-04
      23 0.2951E-04
      24 0.2273E-04
      25 0.1662E-04
      26 0.1673E-04
      27 0.3043E-04
      28 0.2558E-04
      29 0.6048E-04
      30 0.5904E-04
      31 0.2567E-04
      32 0.1671E-04
      33 0.1234E-04
      34 0.1163E-04
      35 0.1329E-04
      36 0.1316E-04
      37 0.1264E-04
      38 0.1238E-04
      39 0.1200E-04
      40 0.2185E-04
      41 0.2795E-04
      42 0.1883E-04
      43 0.1457E-04
      44 0.1167E-04
      45 0.1080E-04
      46 0.1071E-04
      47 0.9869E-05
      48 0.1033E-04
      49 0.1372E-04
      50 0.1178E-04
      51 0.1103E-04
      52 0.1245E-04
      53 0.1323E-04
      54 0.1130E-04
      55 0.9793E-05
      56 0.9581E-05
      57 0.8328E-05
      58 0.8938E-05
      59 0.7052E-05
      60 0.7044E-05
      61 0.7423E-05
      62 0.7715E-05
      63 0.7899E-05
      64 0.7563E-05
      65 0.7239E-05
      66 0.5176E-05
      67 0.4849E-05
      68 0.4746E-05
      69 0.5653E-05
      70 0.5414E-05
      71 0.2349E-04
      72 0.4980E-05
      73 0.6002E-05
      74 0.5673E-05
      75 0.6582E-05
      76 0.6983E-05
      77 0.5669E-05
      78 0.5583E-05
      79 0.4506E-05
      80 0.3965E-05
      81 0.4558E-05
      82 0.4749E-05
      83 0.3674E-05
      84 0.3537E-05
      85 0.3332E-05
      86 0.3420E-05
      87 0.3479E-05
      88 0.3455E-05
      89 0.3549E-05
      90 0.3542E-05
      91 0.3524E-05
      92 0.4729E-05
      93 0.3829E-05
      94 0.3159E-05
      95 0.3229E-05
      96 0.3213E-05
      97 0.3633E-05
      98 0.3225E-05
      99 0.3081E-05
     100 0.3074E-05
     101 0.3144E-05
     102 0.3129E-05
     103 0.3062E-05
     104 0.2977E-05
     105 0.3068E-05
     106 0.3120E-05
     107 0.3280E-05
     108 0.2928E-05
     109 0.2925E-05
     110 0.2922E-05
     111 0.4453E-05
     112 0.3200E-05
     113 0.3022E-05
     114 0.2945E-05
     115 0.2972E-05
     116 0.2958E-05
     117 0.2950E-05
     118 0.3043E-05
     119 0.2806E-05
     120 0.2845E-05
     121 0.6340E-05
     122 0.6091E-05
     123 0.5577E-05
     124 0.4310E-05
     125 0.3979E-05
     126 0.5190E-05
     127 0.5048E-05
     128 0.4771E-05
     129 0.4489E-05
     130 0.4172E-05
     131 0.5524E-05
     132 0.3702E-05
     133 0.3314E-05
     134 0.3217E-05
     135 0.3293E-05
     136 0.3240E-05
     137 0.2995E-05
     138 0.3035E-05
     139 0.2664E-05
     140 0.2366E-05
     141 0.2258E-05
     142 0.2120E-05
     143 0.2065E-05
     144 0.2163E-05
     145 0.2192E-05
     146 0.2068E-05
     147 0.2098E-05
     148 0.1466E-05
     149 0.1440E-05
     150 0.1412E-05
     151 0.1460E-05
     152 0.1349E-05
     153 0.1345E-05
     154 0.1377E-05
     155 0.1424E-05
     156 0.1350E-05
     157 0.1339E-05
     158 0.1333E-05
     159 0.1330E-05
     160 0.1331E-05
     161 0.1328E-05
     162 0.1330E-05
     163 0.4247E-05
     164 0.3420E-05
     165 0.5190E-05
     166 0.3893E-05
     167 0.7082E-05
     168 0.4186E-05
     169 0.2131E-05
     170 0.1919E-05
     171 0.2120E-05
     172 0.3374E-05
     173 0.3065E-05
     174 0.4778E-05
     175 0.2146E-05
     176 0.1684E-05
     177 0.1622E-05
     178 0.1241E-05
     179 0.7256E-05
     180 0.1050E-04
     181 0.7285E-04
     182 0.1590E-05
     183 0.1560E-05
     184 0.1449E-05
     185 0.1384E-05
     186 0.1301E-05
     187 0.1730E-05
     188 0.1531E-05
     189 0.1656E-05
     190 0.4123E-05
     191 0.2577E-05
     192 0.2078E-05
     193 0.1848E-05
     194 0.2526E-05
     195 0.2337E-05
     196 0.2266E-04
     197 0.1481E-04
     198 0.1348E-04
     199 0.8468E-05
     200 0.7614E-05
     201 0.6451E-05
     202 0.2258E-05
     203 0.2418E-05
     204 0.1227E-05
     205 0.1199E-05
     206 0.1353E-05
     207 0.1093E-05
     208 0.1006E-05
     209 0.1003E-05
     210 0.1069E-05
     211 0.9910E-06
     212 0.9967E-06
     213 0.8886E-06
     214 0.8981E-06
     215 0.8947E-06
     216 0.8637E-06
     217 0.8604E-06
     218 0.8464E-06
     219 0.8675E-06
     220 0.8650E-06
     221 0.9555E-06
     222 0.1049E-05
     223 0.9626E-06
     224 0.8544E-06
     225 0.8336E-06
     226 0.8271E-06
     227 0.8250E-06
     228 0.8304E-06
     229 0.8364E-06
     230 0.8408E-06
     231 0.8489E-06
     232 0.8459E-06
     233 0.8222E-06
     234 0.8177E-06
     235 0.8308E-06
     236 0.8271E-06
     237 0.8280E-06
     238 0.8403E-06
     239 0.9402E-06
     240 0.8539E-06
     241 0.9159E-06
     242 0.8729E-06
     243 0.8615E-06
     244 0.8477E-06
     245 0.1470E-05
     246 0.8592E-06
     247 0.7856E-06
     248 0.7689E-06
     249 0.7606E-06
     250 0.7750E-06
     251 0.8323E-06
     252 0.7720E-06
     253 0.8103E-06
     254 0.8526E-06
     255 0.8087E-06
     256 0.1169E-05
     257 0.8265E-06
     258 0.8540E-06
     259 0.1183E-05
     260 0.7971E-06
     261 0.7873E-06
     262 0.8410E-06
     263 0.9617E-06
     264 0.1053E-05
     265 0.3170E-05
     266 0.3132E-05
     267 0.1186E-05
     268 0.9716E-06
     269 0.9223E-06
     270 0.8116E-06
     271 0.8223E-06
     272 0.8232E-06
     273 0.8179E-06
     274 0.8337E-06
     275 0.8327E-06
     276 0.8879E-06
     277 0.8483E-06
     278 0.8530E-06
     279 0.8498E-06
     280 0.9494E-06
     281 0.9268E-06
     282 0.8864E-06
     283 0.9098E-06
     284 0.9143E-06
     285 0.9060E-06
     286 0.8778E-06
     287 0.8761E-06
     288 0.9525E-06
     289 0.9129E-06
     290 0.8944E-06
     291 0.8751E-06
     292 0.9193E-06
     293 0.8874E-06
     294 0.8814E-06
     295 0.8722E-06
     296 0.8717E-06
     297 0.8699E-06
     298 0.8643E-06
     299 0.8658E-06
     300 0.8662E-06
     301 0.8667E-06
     302 0.8632E-06
     303 0.8601E-06
     304 0.8624E-06
     305 0.8651E-06
     306 0.8681E-06
     307 0.8662E-06
     308 0.8653E-06
     309 0.9090E-06
     310 0.8714E-06
     311 0.8723E-06
     312 0.8708E-06
     313 0.8708E-06
     314 0.8699E-06
     315 0.1667E-05
     316 0.1122E-05
     317 0.9077E-06
     318 0.1057E-05
     319 0.1160E-05
     320 0.2020E-05
     321 0.1311E-05
     322 0.1290E-05
     323 0.9876E-06
     324 0.9085E-06
     325 0.8946E-06
     326 0.1226E-05
     327 0.9766E-06
     328 0.9549E-06
     329 0.9233E-06
     330 0.8862E-06
     331 0.8854E-06
     332 0.9302E-06
     333 0.8952E-06
     334 0.9145E-06
     335 0.9506E-06
     336 0.8860E-06
     337 0.8698E-06
     338 0.8725E-06
     339 0.8773E-06
     340 0.8808E-06
     341 0.8867E-06
     342 0.9003E-06
     343 0.8915E-06
     344 0.8919E-06
     345 0.1119E-05
     346 0.9545E-06
     347 0.1212E-05
     348 0.9152E-06
     349 0.1004E-05
     350 0.3805E-05
     351 0.1647E-05
     352 0.4264E-05
     353 0.9399E-05
     354 0.1026E-05
     355 0.9328E-06
     356 0.9671E-06
     357 0.9775E-06
     358 0.1784E-05
     359 0.1048E-05
     360 0.9644E-06
     361 0.9071E-06
     362 0.9051E-06
     363 0.9092E-06
     364 0.9253E-06
     365 0.9057E-06
     366 0.9049E-06
     367 0.8987E-06
     368 0.9007E-06
     369 0.8958E-06
     370 0.8924E-06
     371 0.1052E-05
     372 0.1099E-05
     373 0.1270E-05
     374 0.1126E-05
     375 0.9137E-06
     376 0.8965E-06
     377 0.8918E-06
     378 0.8907E-06
     379 0.8907E-06
     380 0.9922E-06
     381 0.9464E-06
     382 0.9320E-06
     383 0.9272E-06
     384 0.9241E-06
     385 0.9193E-06
     386 0.9193E-06
     387 0.9140E-06
     388 0.9121E-06
     389 0.9128E-06
     390 0.9290E-06
     391 0.9078E-06
     392 0.9497E-06
     393 0.9370E-06
     394 0.9712E-06
     395 0.9483E-06
     396 0.9457E-06
     397 0.9438E-06
     398 0.1418E-05
     399 0.1227E-05
     400 0.1142E-05
     401 0.9751E-06
     402 0.9738E-06
     403 0.1025E-05
     404 0.1041E-05
     405 0.1032E-05
     406 0.9941E-06
     407 0.9991E-06
     408 0.9949E-06
     409 0.1013E-05
     410 0.9998E-06
     411 0.9671E-06
     412 0.9132E-06
     413 0.9375E-06
     414 0.1166E-05
     415 0.1208E-05
     416 0.1084E-05
     417 0.1033E-05
     418 0.9377E-06
     419 0.9560E-06
     420 0.9481E-06
     421 0.9393E-06
     422 0.9377E-06
     423 0.9766E-06
     424 0.1003E-05
     425 0.9928E-06
     426 0.9385E-06
     427 0.9433E-06
     428 0.9453E-06
     429 0.9161E-06
     430 0.1048E-05
     431 0.1248E-05
     432 0.1365E-05
     433 0.1701E-05
     434 0.1118E-05
     435 0.1120E-05
     436 0.1080E-05
     437 0.1089E-05
     438 0.1070E-05
     439 0.1047E-05
     440 0.1073E-05
     441 0.1038E-05
     442 0.1034E-05
     443 0.1031E-05
     444 0.1033E-05
     445 0.1027E-05
     446 0.1025E-05
     447 0.1026E-05
     448 0.1022E-05
     449 0.1114E-05
     450 0.1092E-05
     451 0.1054E-05
     452 0.1100E-05
     453 0.1130E-05
     454 0.1092E-05
     455 0.1119E-05
     456 0.1194E-05
     457 0.1096E-05
     458 0.1050E-05
     459 0.1061E-05
     460 0.1054E-05
     461 0.1012E-05
     462 0.1157E-05
     463 0.1082E-05
     464 0.1214E-05
     465 0.1174E-05
     466 0.1095E-05
     467 0.1130E-05
     468 0.1162E-05
     469 0.1154E-05
     470 0.1137E-05
     471 0.1394E-05
     472 0.1094E-05
     473 0.1154E-05
     474 0.1188E-05
     475 0.1092E-05
     476 0.1095E-05
     477 0.1083E-05
     478 0.1096E-05
     479 0.1062E-05
     480 0.1077E-05
     481 0.1075E-05
     482 0.1076E-05
     483 0.1082E-05
     484 0.2144E-05
     485 0.1407E-05
     486 0.1432E-05
     487 0.1644E-05
     488 0.1555E-05
     489 0.1233E-05
     490 0.2212E-05
     491 0.1485E-05
     492 0.1666E-05
     493 0.1315E-05
     494 0.1109E-05
     495 0.1120E-05
     496 0.1120E-05
     497 0.1122E-05
     498 0.2213E-05
     499 0.1572E-05
     500 0.1292E-05
     501 0.1292E-05
NUMERICAL WARNING:: IterSolve: Failed convergence tolerances.
ComputeChange: NS (ITER=5) (NRM,RELC): ( 0.65874448E-03 0.57381300E-04 ) :: helmholtz equation
HelmholtzSolve: iter:    5 Assembly: (s)   35.09  236.88
HelmholtzSolve: iter:    5 Solve:    (s)  180.94  923.82
HelmholtzSolve: 
HelmholtzSolve: -------------------------------------
HelmholtzSolve:  Helmholtz iteration           6
HelmholtzSolve:  Frequency (Hz):    27.501700000000000
HelmholtzSolve: -------------------------------------
HelmholtzSolve: 
HelmholtzSolve: Starting Assembly
HelmholtzSolve: Assembly:
: .................... 56%
: ...............Assembly done
DefUtils::DefaultDirichletBCs: Setting Dirichlet boundary conditions
DefUtils::DefaultDirichletBCs: Dirichlet boundary conditions set
       1 0.1303E-04
       2 0.9750E-05
       3 0.4436E-05
       4 0.2142E-05
       5 0.1750E-05
       6 0.1651E-05
       7 0.1635E-05
       8 0.3005E-05
       9 0.1989E-05
      10 0.2883E-05
      11 0.2469E-05
      12 0.2243E-05
      13 0.4799E-05
      14 0.4307E-05
      15 0.4676E-05
      16 0.5377E-05
      17 0.5240E-05
      18 0.5418E-05
      19 0.5900E-05
      20 0.6460E-05
      21 0.4469E-05
      22 0.3631E-05
      23 0.3578E-05
      24 0.3041E-05
      25 0.4673E-05
      26 0.3698E-05
      27 0.2983E-05
      28 0.2829E-05
      29 0.2424E-05
      30 0.3489E-05
      31 0.4316E-05
      32 0.2568E-05
      33 0.2544E-05
      34 0.2454E-05
      35 0.2358E-05
      36 0.2441E-05
      37 0.2675E-05
      38 0.2164E-05
      39 0.2294E-05
      40 0.3500E-05
      41 0.1944E-05
      42 0.1879E-05
      43 0.2259E-05
      44 0.6574E-05
      45 0.6806E-05
      46 0.3380E-04
      47 0.1555E-04
      48 0.3147E-05
      49 0.4035E-05
      50 0.2656E-05
      51 0.2550E-05
      52 0.2306E-05
      53 0.2329E-05
      54 0.6283E-05
      55 0.5641E-05
      56 0.4042E-05
      57 0.2361E-05
      58 0.1360E-05
      59 0.1341E-05
      60 0.2487E-05
      61 0.6491E-05
      62 0.2871E-04
      63 0.1578E-04
      64 0.1089E-04
      65 0.9852E-05
      66 0.9250E-05
      67 0.9354E-05
      68 0.7976E-05
      69 0.8026E-05
      70 0.6613E-05
      71 0.5884E-05
      72 0.6285E-05
      73 0.6808E-05
      74 0.6507E-05
      75 0.5536E-05
      76 0.4620E-05
      77 0.4622E-05
      78 0.4592E-05
      79 0.4618E-05
      80 0.4809E-05
      81 0.5031E-05
      82 0.5008E-05
      83 0.4548E-05
      84 0.4574E-05
      85 0.4284E-05
      86 0.4104E-05
      87 0.4420E-05
      88 0.4464E-05
      89 0.4454E-05
      90 0.4433E-05
      91 0.4197E-05
      92 0.4010E-05
      93 0.4015E-05
      94 0.3874E-05
      95 0.3732E-05
      96 0.4538E-05
      97 0.4643E-05
      98 0.4727E-05
      99 0.4822E-05
     100 0.4887E-05
     101 0.4919E-05
     102 0.5990E-05
     103 0.5763E-05
     104 0.5505E-05
     105 0.5112E-05
     106 0.4164E-05
     107 0.4824E-05
     108 0.4914E-05
     109 0.4665E-05
     110 0.4603E-05
     111 0.4920E-05
     112 0.4740E-05
     113 0.5217E-05
     114 0.4752E-05
     115 0.4299E-05
     116 0.4196E-05
     117 0.5110E-05
     118 0.4871E-05
     119 0.6062E-05
     120 0.4618E-05
     121 0.3526E-05
     122 0.3395E-05
     123 0.2591E-05
     124 0.2550E-05
     125 0.2449E-05
     126 0.2452E-05
     127 0.2626E-05
     128 0.2676E-05
     129 0.2282E-05
     130 0.2265E-05
     131 0.1755E-05
     132 0.1872E-05
     133 0.2172E-05
     134 0.1998E-05
     135 0.1931E-05
     136 0.1904E-05
     137 0.1507E-05
     138 0.3149E-05
     139 0.2912E-05
     140 0.3790E-05
     141 0.3276E-05
     142 0.1507E-05
     143 0.1533E-05
     144 0.1681E-05
     145 0.2377E-05
     146 0.1405E-05
     147 0.1374E-05
     148 0.1354E-05
     149 0.1322E-05
     150 0.1257E-05
     151 0.1229E-05
     152 0.1191E-05
     153 0.1185E-05
     154 0.1169E-05
     155 0.1142E-05
     156 0.1261E-05
     157 0.1153E-05
     158 0.1450E-05
     159 0.1293E-05
     160 0.1355E-05
     161 0.1265E-05
     162 0.1254E-05
     163 0.1323E-05
     164 0.1725E-05
     165 0.1577E-05
     166 0.1896E-05
     167 0.1771E-05
     168 0.1703E-05
     169 0.1649E-05
     170 0.1622E-05
     171 0.1646E-05
     172 0.1769E-05
     173 0.1751E-05
     174 0.1651E-05
     175 0.1750E-05
     176 0.1703E-05
     177 0.1682E-05
     178 0.1733E-05
     179 0.5439E-05
     180 0.2248E-05
     181 0.1733E-05
     182 0.1589E-05
     183 0.1573E-05
     184 0.1601E-05
     185 0.1570E-05
     186 0.1570E-05
     187 0.1555E-05
     188 0.1565E-05
     189 0.1583E-05
     190 0.2005E-05
     191 0.1662E-05
     192 0.1658E-05
     193 0.1622E-05
     194 0.1730E-05
     195 0.1774E-05
     196 0.1906E-05
     197 0.2640E-05
     198 0.2574E-05
     199 0.2153E-05
     200 0.1862E-05
     201 0.2064E-05
     202 0.2727E-05
     203 0.8863E-05
     204 0.1740E-05
     205 0.1499E-05
     206 0.1813E-05
     207 0.1694E-05
     208 0.1435E-05
     209 0.1427E-05
     210 0.1837E-05
     211 0.3639E-05
     212 0.1485E-05
     213 0.1456E-05
     214 0.1421E-05
     215 0.1370E-05
     216 0.2119E-05
     217 0.1667E-05
     218 0.1634E-05
     219 0.1614E-05
     220 0.1530E-05
     221 0.1605E-05
     222 0.1632E-05
     223 0.1718E-05
     224 0.1685E-05
     225 0.1663E-05
     226 0.1456E-05
     227 0.1433E-05
     228 0.1419E-05
     229 0.1678E-05
     230 0.1932E-05
     231 0.1636E-05
     232 0.1626E-05
     233 0.1116E-05
     234 0.1335E-05
     235 0.1225E-05
     236 0.1078E-05
     237 0.1064E-05
     238 0.1744E-05
     239 0.1524E-05
     240 0.2874E-05
     241 0.2573E-05
     242 0.1255E-05
     243 0.1224E-05
     244 0.9741E-06
     245 0.9637E-06
     246 0.9921E-06
     247 0.2633E-05
     248 0.6038E-05
     249 0.1417E-05
     250 0.1534E-05
     251 0.1427E-05
     252 0.1191E-05
     253 0.1192E-05
     254 0.1211E-05
     255 0.1146E-05
     256 0.1362E-05
     257 0.5319E-05
     258 0.1085E-05
     259 0.1062E-05
     260 0.1350E-05
     261 0.5098E-05
     262 0.2860E-05
     263 0.1067E-05
     264 0.1385E-05
     265 0.1916E-05
     266 0.1363E-05
     267 0.1600E-05
     268 0.1095E-05
     269 0.9012E-06
     270 0.8855E-06
     271 0.1072E-05
     272 0.1029E-05
     273 0.3935E-05
     274 0.3495E-05
     275 0.2077E-05
     276 0.1091E-05
     277 0.9912E-06
     278 0.8976E-06
     279 0.9595E-06
     280 0.1540E-05
     281 0.1039E-05
     282 0.9308E-06
     283 0.8598E-06
     284 0.1062E-05
     285 0.9468E-06
     286 0.9291E-06
     287 0.8933E-06
     288 0.8846E-06
     289 0.1262E-05
     290 0.1684E-05
     291 0.8755E-06
     292 0.7642E-06
     293 0.1181E-05
     294 0.1153E-05
     295 0.1570E-05
     296 0.7593E-06
     297 0.8358E-06
     298 0.9279E-06
     299 0.1098E-05
     300 0.8040E-06
     301 0.8712E-06
     302 0.7718E-06
     303 0.9421E-06
     304 0.7954E-06
     305 0.7175E-06
     306 0.7377E-06
     307 0.7881E-06
     308 0.7489E-06
     309 0.9433E-06
     310 0.8172E-06
     311 0.1110E-05
     312 0.1322E-05
     313 0.3335E-05
     314 0.1047E-05
     315 0.6402E-06
     316 0.7315E-06
     317 0.7849E-06
     318 0.7794E-06
     319 0.7734E-06
     320 0.7343E-06
     321 0.7253E-06
     322 0.1186E-05
     323 0.1062E-05
     324 0.1689E-05
     325 0.1055E-05
     326 0.8186E-06
     327 0.6124E-06
     328 0.6165E-06
     329 0.1151E-05
     330 0.1333E-05
     331 0.3061E-05
     332 0.1280E-05
     333 0.6337E-06
     334 0.6439E-06
     335 0.5799E-06
     336 0.5888E-06
     337 0.5833E-06
     338 0.8260E-06
     339 0.6907E-06
     340 0.6296E-06
     341 0.6447E-06
     342 0.6382E-06
     343 0.6617E-06
     344 0.5833E-06
     345 0.6123E-06
     346 0.5795E-06
     347 0.7031E-06
     348 0.7571E-06
     349 0.5736E-06
     350 0.6045E-06
     351 0.5903E-06
     352 0.5773E-06
     353 0.5807E-06
     354 0.5858E-06
     355 0.7052E-06
     356 0.5614E-06
     357 0.1783E-05
     358 0.9709E-06
     359 0.7238E-06
     360 0.5631E-06
     361 0.5520E-06
     362 0.5453E-06
     363 0.5917E-06
     364 0.5895E-06
     365 0.5358E-06
     366 0.6713E-06
     367 0.1152E-05
     368 0.5730E-06
     369 0.5384E-06
     370 0.5398E-06
     371 0.5564E-06
     372 0.5381E-06
     373 0.5412E-06
     374 0.5477E-06
     375 0.5911E-06
     376 0.5531E-06
     377 0.5550E-06
     378 0.5566E-06
     379 0.5682E-06
     380 0.5706E-06
     381 0.5631E-06
     382 0.5703E-06
     383 0.6512E-06
     384 0.6047E-06
     385 0.5255E-06
     386 0.9668E-06
     387 0.8658E-06
     388 0.5541E-06
     389 0.5447E-06
     390 0.6248E-06
     391 0.8160E-06
     392 0.5592E-06
     393 0.5541E-06
     394 0.5386E-06
     395 0.5386E-06
     396 0.5342E-06
     397 0.5341E-06
     398 0.5406E-06
     399 0.5456E-06
     400 0.5771E-06
     401 0.5753E-06
     402 0.8390E-06
     403 0.6555E-06
     404 0.1239E-05
     405 0.2443E-05
     406 0.1243E-05
     407 0.8393E-06
     408 0.6769E-06
     409 0.6189E-06
     410 0.6047E-06
     411 0.5903E-06
     412 0.5706E-06
     413 0.6104E-06
     414 0.6079E-06
     415 0.5764E-06
     416 0.7706E-06
     417 0.1545E-05
     418 0.4813E-06
     419 0.4900E-06
     420 0.4920E-06
     421 0.5134E-06
     422 0.1467E-05
     423 0.8488E-06
     424 0.7450E-06
     425 0.5968E-06
     426 0.5019E-06
     427 0.5229E-06
     428 0.5168E-06
     429 0.7403E-06
     430 0.5638E-06
     431 0.5310E-06
     432 0.4905E-06
     433 0.5109E-06
     434 0.3137E-05
     435 0.1495E-05
     436 0.2897E-05
     437 0.3029E-05
     438 0.2398E-05
     439 0.1153E-05
     440 0.8868E-06
     441 0.4019E-05
     442 0.5417E-05
     443 0.1137E-05
     444 0.1902E-05
     445 0.1731E-05
     446 0.1451E-05
     447 0.1109E-05
     448 0.7322E-06
     449 0.7313E-06
     450 0.1475E-05
     451 0.1482E-05
     452 0.1024E-05
     453 0.9012E-06
     454 0.8641E-06
     455 0.1188E-05
     456 0.9410E-06
     457 0.9960E-06
     458 0.1008E-05
     459 0.9814E-06
     460 0.9852E-06
     461 0.1152E-05
     462 0.1161E-05
     463 0.1030E-05
     464 0.1140E-05
     465 0.1055E-05
     466 0.9886E-06
     467 0.9827E-06
     468 0.9969E-06
     469 0.9931E-06
     470 0.9762E-06
     471 0.9784E-06
     472 0.1470E-05
     473 0.1279E-05
     474 0.1363E-05
     475 0.1289E-05
     476 0.1423E-05
     477 0.1454E-05
     478 0.1606E-05
     479 0.1087E-05
     480 0.1037E-05
     481 0.9813E-06
     482 0.9137E-06
     483 0.9083E-06
     484 0.1571E-05
     485 0.1541E-05
     486 0.1520E-05
     487 0.1552E-05
     488 0.1375E-05
     489 0.1305E-05
     490 0.1209E-05
     491 0.1053E-05
     492 0.8900E-06
     493 0.8448E-06
     494 0.8527E-06
     495 0.8145E-06
     496 0.9117E-06
     497 0.8593E-06
     498 0.9675E-06
     499 0.9909E-06
     500 0.1033E-05
     501 0.1033E-05
NUMERICAL WARNING:: IterSolve: Failed convergence tolerances.
ComputeChange: NS (ITER=6) (NRM,RELC): ( 0.65874848E-03 0.60758702E-05 ) :: helmholtz equation
HelmholtzSolve: iter:    6 Assembly: (s)   36.04  272.91
HelmholtzSolve: iter:    6 Solve:    (s)  182.91 1106.73
HelmholtzSolve: 
HelmholtzSolve: -------------------------------------
HelmholtzSolve:  Helmholtz iteration           7
HelmholtzSolve:  Frequency (Hz):    27.501700000000000
HelmholtzSolve: -------------------------------------
HelmholtzSolve: 
HelmholtzSolve: Starting Assembly
HelmholtzSolve: Assembly:
: .................... 56%
: ................Assembly done
DefUtils::DefaultDirichletBCs: Setting Dirichlet boundary conditions
DefUtils::DefaultDirichletBCs: Dirichlet boundary conditions set
       1 0.1319E-04
       2 0.1177E-04
       3 0.3063E-05
       4 0.2398E-05
       5 0.1992E-05
       6 0.2000E-05
       7 0.1962E-05
       8 0.1674E-05
       9 0.4381E-05
      10 0.1096E-05
      11 0.1204E-05
      12 0.1323E-05
      13 0.1398E-05
      14 0.1487E-05
      15 0.2284E-05
      16 0.4417E-05
      17 0.2489E-05
      18 0.3023E-05
      19 0.3763E-05
      20 0.4336E-05
      21 0.5680E-05
      22 0.7142E-05
      23 0.6441E-05
      24 0.6946E-05
      25 0.7448E-05
      26 0.7038E-05
      27 0.6195E-05
      28 0.5801E-05
      29 0.5674E-05
      30 0.1178E-04
      31 0.4855E-05
      32 0.5992E-05
      33 0.1115E-04
      34 0.4364E-05
      35 0.2823E-05
      36 0.2811E-05
      37 0.1144E-04
      38 0.1055E-04
      39 0.7494E-05
      40 0.1942E-05
      41 0.1810E-05
      42 0.8548E-05
      43 0.1795E-05
      44 0.1591E-05
      45 0.1363E-05
      46 0.3267E-05
      47 0.3215E-05
      48 0.1023E-05
      49 0.8783E-06
      50 0.9478E-06
      51 0.8140E-06
      52 0.2007E-05
      53 0.7658E-06
      54 0.7364E-06
      55 0.9963E-06
      56 0.1046E-05
      57 0.9737E-06
      58 0.7820E-06
      59 0.7561E-06
      60 0.7028E-06
      61 0.8864E-06
      62 0.2738E-05
      63 0.1944E-05
      64 0.1960E-05
      65 0.2107E-05
      66 0.2954E-05
      67 0.2346E-05
      68 0.1045E-05
      69 0.6577E-06
      70 0.4276E-06
      71 0.4315E-06
      72 0.7838E-06
      73 0.9328E-06
      74 0.8268E-06
      75 0.1619E-05
      76 0.5621E-06
      77 0.4935E-06
      78 0.4921E-06
      79 0.4681E-06
      80 0.6679E-06
      81 0.5737E-06
      82 0.4957E-06
      83 0.4841E-06
      84 0.5352E-06
      85 0.4766E-06
      86 0.4319E-06
      87 0.4306E-06
      88 0.4776E-06
      89 0.3961E-06
      90 0.9049E-06
      91 0.4151E-06
      92 0.5278E-06
      93 0.3771E-06
      94 0.4246E-06
      95 0.3871E-06
      96 0.3853E-06
      97 0.3480E-06
      98 0.3320E-06
      99 0.2948E-06
     100 0.2801E-06
     101 0.2742E-06
     102 0.2588E-06
     103 0.2542E-06
     104 0.2551E-06
     105 0.2564E-06
     106 0.2535E-06
     107 0.2624E-06
     108 0.2879E-06
     109 0.2718E-06
     110 0.4270E-06
     111 0.2756E-06
     112 0.2668E-06
     113 0.2458E-06
     114 0.2416E-06
     115 0.6115E-06
     116 0.1138E-05
     117 0.6249E-06
     118 0.2236E-06
     119 0.2459E-06
     120 0.2634E-06
     121 0.2511E-06
     122 0.2484E-06
     123 0.2163E-06
     124 0.2201E-06
     125 0.8499E-06
     126 0.1241E-05
     127 0.7785E-06
     128 0.1846E-05
     129 0.6813E-06
     130 0.9930E-06
     131 0.9641E-06
     132 0.6301E-06
     133 0.6169E-06
     134 0.4801E-06
     135 0.7940E-06
     136 0.7862E-06
     137 0.8922E-06
     138 0.9091E-06
     139 0.8646E-06
     140 0.8348E-06
     141 0.8301E-06
     142 0.8033E-06
     143 0.7328E-06
     144 0.7261E-06
     145 0.7308E-06
     146 0.6387E-06
     147 0.1043E-05
     148 0.1184E-05
     149 0.1331E-05
     150 0.3332E-06
     151 0.1780E-06
     152 0.1811E-06
     153 0.8985E-06
     154 0.2872E-06
     155 0.3024E-06
     156 0.4191E-06
     157 0.4346E-06
     158 0.2762E-06
     159 0.5186E-05
     160 0.5926E-05
     161 0.6625E-05
     162 0.6915E-05
     163 0.5002E-05
     164 0.5120E-05
     165 0.4610E-05
     166 0.4608E-05
     167 0.3700E-05
     168 0.4023E-05
     169 0.4112E-05
     170 0.3825E-05
     171 0.3747E-05
     172 0.4132E-05
     173 0.3920E-05
     174 0.3838E-05
     175 0.3497E-05
     176 0.3289E-05
     177 0.3876E-05
     178 0.3677E-05
     179 0.3654E-05
     180 0.3624E-05
     181 0.3865E-05
     182 0.3789E-05
     183 0.3770E-05
     184 0.3524E-05
     185 0.3576E-05
     186 0.4958E-05
     187 0.5083E-05
     188 0.3970E-05
     189 0.4812E-05
     190 0.4701E-05
     191 0.6221E-05
     192 0.2479E-05
     193 0.2644E-05
     194 0.3334E-05
     195 0.2443E-05
     196 0.3564E-05
     197 0.3623E-05
     198 0.1050E-04
     199 0.9766E-05
     200 0.9846E-05
     201 0.9565E-05
     202 0.9422E-05
     203 0.9132E-05
     204 0.8838E-05
     205 0.8888E-05
     206 0.8757E-05
     207 0.8820E-05
     208 0.1103E-04
     209 0.1218E-04
     210 0.6084E-05
     211 0.8992E-05
     212 0.1682E-04
     213 0.1050E-04
     214 0.9317E-05
     215 0.9748E-05
     216 0.8789E-05
     217 0.8921E-05
     218 0.6720E-05
     219 0.2453E-04
     220 0.1153E-04
     221 0.1389E-04
     222 0.1478E-04
     223 0.1508E-04
     224 0.1488E-04
     225 0.1363E-04
     226 0.8554E-05
     227 0.9555E-05
     228 0.1298E-04
     229 0.1358E-04
     230 0.2921E-04
     231 0.2294E-04
     232 0.1318E-04
     233 0.9857E-05
     234 0.9667E-05
     235 0.9110E-05
     236 0.1295E-04
     237 0.2573E-04
     238 0.1758E-04
     239 0.8733E-05
     240 0.8528E-05
     241 0.8888E-05
     242 0.8373E-05
     243 0.8380E-05
     244 0.7982E-05
     245 0.8806E-05
     246 0.7623E-05
     247 0.6912E-05
     248 0.7054E-05
     249 0.5815E-05
     250 0.6658E-05
     251 0.5483E-05
     252 0.7390E-05
     253 0.5738E-05
     254 0.5741E-05
     255 0.4936E-05
     256 0.5234E-05
     257 0.5139E-05
     258 0.6343E-05
     259 0.8631E-05
     260 0.3446E-05
     261 0.5030E-05
     262 0.4954E-05
     263 0.6517E-05
     264 0.1924E-05
     265 0.2242E-05
     266 0.1983E-05
     267 0.1989E-05
     268 0.2014E-05
     269 0.1922E-05
     270 0.1873E-05
     271 0.1854E-05
     272 0.1733E-05
     273 0.1781E-05
     274 0.1980E-05
     275 0.1633E-05
     276 0.1499E-05
     277 0.1521E-05
     278 0.1483E-05
     279 0.1490E-05
     280 0.1481E-05
     281 0.1422E-05
     282 0.1385E-05
     283 0.1713E-05
     284 0.1736E-05
     285 0.1899E-05
     286 0.1662E-05
     287 0.1693E-05
     288 0.1672E-05
     289 0.1650E-05
     290 0.1967E-05
     291 0.1964E-05
     292 0.2035E-05
     293 0.2783E-05
     294 0.2407E-05
     295 0.2410E-05
     296 0.4561E-05
     297 0.2886E-05
     298 0.1209E-05
     299 0.6871E-05
     300 0.4182E-05
     301 0.3859E-05
     302 0.3753E-05
     303 0.4681E-05
     304 0.3350E-05
     305 0.3338E-05
     306 0.3264E-05
     307 0.3626E-05
     308 0.3461E-05
     309 0.3166E-05
     310 0.3643E-05
     311 0.3445E-05
     312 0.3489E-05
     313 0.5145E-05
     314 0.9363E-05
     315 0.9055E-05
     316 0.8134E-05
     317 0.6959E-05
     318 0.5686E-05
     319 0.7540E-05
     320 0.5936E-05
     321 0.5473E-05
     322 0.8486E-05
     323 0.8776E-05
     324 0.9209E-05
     325 0.9856E-05
     326 0.7454E-05
     327 0.5791E-05
     328 0.2818E-05
     329 0.4032E-05
     330 0.3503E-05
     331 0.4061E-05
     332 0.3440E-05
     333 0.3427E-05
     334 0.1913E-05
     335 0.3249E-05
     336 0.3117E-05
     337 0.2986E-05
     338 0.2925E-05
     339 0.1694E-05
     340 0.2218E-05
     341 0.1805E-05
     342 0.1812E-05
     343 0.4812E-05
     344 0.6338E-06
     345 0.7135E-06
     346 0.6510E-06
     347 0.6567E-06
     348 0.6083E-06
     349 0.5822E-06
     350 0.5863E-06
     351 0.5808E-06
     352 0.5893E-06
     353 0.7735E-06
     354 0.7595E-06
     355 0.9435E-06
     356 0.5286E-06
     357 0.4439E-06
     358 0.4637E-06
     359 0.5229E-06
     360 0.6284E-06
     361 0.5739E-06
     362 0.6046E-06
     363 0.5700E-06
     364 0.5430E-06
     365 0.5520E-06
     366 0.5352E-06
     367 0.5340E-06
     368 0.5546E-06
     369 0.5360E-06
     370 0.5140E-06
     371 0.5516E-06
     372 0.5761E-06
     373 0.8741E-06
     374 0.4196E-06
     375 0.4475E-06
     376 0.4358E-06
     377 0.4740E-06
     378 0.4649E-06
     379 0.5160E-06
     380 0.4229E-06
     381 0.5587E-06
     382 0.8646E-06
     383 0.9902E-06
     384 0.1614E-05
     385 0.1718E-05
     386 0.8202E-06
     387 0.7816E-06
     388 0.5040E-06
     389 0.5104E-06
     390 0.6386E-06
     391 0.6416E-06
     392 0.8558E-06
     393 0.4109E-06
     394 0.3872E-06
     395 0.2940E-06
     396 0.2460E-06
     397 0.2233E-06
     398 0.1991E-06
     399 0.1973E-06
     400 0.1906E-06
     401 0.1658E-06
     402 0.2593E-06
     403 0.2405E-06
     404 0.2191E-06
[...]
      96 0.1211E-06
      97 0.1257E-06
      98 0.1346E-06
      99 0.1476E-06
     100 0.1410E-06
     101 0.1773E-06
     102 0.2201E-06
     103 0.1408E-06
     104 0.2096E-06
     105 0.2076E-06
     106 0.2112E-06
     107 0.1187E-06
     108 0.1315E-06
     109 0.1155E-06
     110 0.1261E-06
     111 0.1178E-06
     112 0.1275E-06
     113 0.1135E-06
     114 0.1131E-06
     115 0.9832E-07
     116 0.9955E-07
     117 0.9827E-07
     118 0.9821E-07
     119 0.1054E-06
     120 0.1044E-06
     121 0.1051E-06
     122 0.1141E-06
     123 0.1013E-06
     124 0.9059E-07
     125 0.8960E-07
     126 0.9309E-07
     127 0.1545E-06
     128 0.1142E-06
     129 0.1206E-06
     130 0.1476E-06
     131 0.1964E-06
     132 0.2381E-06
     133 0.1174E-06
     134 0.1289E-06
     135 0.1332E-06
     136 0.1557E-06
     137 0.1630E-06
     138 0.1697E-06
     139 0.1830E-06
     140 0.1922E-06
     141 0.1797E-06
     142 0.1771E-06
     143 0.1813E-06
     144 0.1864E-06
     145 0.1819E-06
     146 0.1809E-06
     147 0.1810E-06
     148 0.1744E-06
     149 0.1431E-06
     150 0.2408E-06
     151 0.3871E-06
     152 0.2017E-05
     153 0.1257E-06
     154 0.8148E-07
     155 0.9413E-07
     156 0.9557E-07
     157 0.9382E-07
     158 0.9380E-07
     159 0.9477E-07
     160 0.1101E-06
     161 0.9999E-07
     162 0.9441E-07
     163 0.9534E-07
     164 0.9379E-07
     165 0.9880E-07
     166 0.8993E-07
     167 0.1936E-06
     168 0.1178E-06
     169 0.1150E-06
     170 0.1177E-06
     171 0.1726E-06
     172 0.7097E-07
     173 0.7843E-07
     174 0.6764E-07
     175 0.7542E-07
     176 0.6675E-07
     177 0.7654E-07
     178 0.7481E-07
     179 0.7920E-07
     180 0.8897E-07
     181 0.7908E-07
     182 0.7734E-07
     183 0.7073E-07
     184 0.1323E-06
     185 0.1007E-06
     186 0.9503E-07
     187 0.1015E-06
     188 0.8893E-07
     189 0.8930E-07
     190 0.8057E-07
     191 0.8100E-07
     192 0.7471E-07
     193 0.6734E-07
     194 0.7806E-07
     195 0.8485E-07
     196 0.8306E-07
     197 0.9402E-07
     198 0.1068E-06
     199 0.9877E-07
     200 0.9694E-07
     201 0.9598E-07
     202 0.9375E-07
     203 0.9269E-07
     204 0.8835E-07
     205 0.2904E-06
     206 0.1750E-06
     207 0.1649E-06
     208 0.1574E-06
     209 0.1395E-06
     210 0.1438E-06
     211 0.1303E-06
     212 0.1292E-06
     213 0.1295E-06
     214 0.1202E-06
     215 0.1217E-06
     216 0.1165E-06
     217 0.1161E-06
     218 0.1170E-06
     219 0.1166E-06
     220 0.1175E-06
     221 0.1182E-06
     222 0.1190E-06
     223 0.4290E-06
     224 0.3275E-06
     225 0.1259E-06
     226 0.1131E-06
     227 0.2096E-06
     228 0.1556E-06
     229 0.1675E-06
     230 0.1570E-06
     231 0.1239E-06
     232 0.1232E-06
     233 0.1313E-06
     234 0.1290E-06
     235 0.1234E-06
     236 0.1440E-06
     237 0.1280E-06
     238 0.1338E-06
     239 0.1234E-06
     240 0.1734E-06
     241 0.4341E-06
     242 0.1463E-06
     243 0.2338E-06
     244 0.5010E-06
     245 0.2361E-06
     246 0.2304E-06
     247 0.6210E-06
     248 0.5165E-06
     249 0.4072E-06
     250 0.2599E-06
     251 0.2933E-06
     252 0.1128E-05
     253 0.2295E-06
     254 0.1052E-05
     255 0.1076E-05
     256 0.8496E-06
     257 0.7031E-06
     258 0.9775E-06
     259 0.1001E-05
     260 0.9837E-06
     261 0.8272E-06
     262 0.7154E-06
     263 0.1567E-05
     264 0.4271E-05
     265 0.1412E-05
     266 0.1636E-05
     267 0.1689E-05
     268 0.1578E-05
     269 0.1603E-05
     270 0.1610E-05
     271 0.1573E-05
     272 0.1551E-05
     273 0.1261E-05
     274 0.4913E-06
     275 0.5383E-06
     276 0.4161E-06
     277 0.3357E-06
     278 0.3447E-06
     279 0.2838E-06
     280 0.2502E-06
     281 0.1859E-06
     282 0.2717E-06
     283 0.2843E-06
     284 0.2814E-06
     285 0.2842E-06
     286 0.3002E-06
     287 0.2435E-06
     288 0.2815E-06
     289 0.2116E-06
     290 0.2055E-06
     291 0.1936E-06
     292 0.2187E-06
     293 0.2166E-06
     294 0.2079E-06
     295 0.2074E-06
     296 0.2113E-06
     297 0.2382E-06
     298 0.2175E-06
     299 0.1967E-06
     300 0.1835E-06
     301 0.1812E-06
     302 0.1842E-06
     303 0.1772E-06
     304 0.1739E-06
     305 0.1812E-06
     306 0.1767E-06
     307 0.1725E-06
     308 0.2069E-06
     309 0.2022E-06
     310 0.1249E-06
     311 0.1101E-06
     312 0.1053E-06
     313 0.1105E-06
     314 0.1244E-06
     315 0.2279E-06
     316 0.1879E-06
     317 0.1447E-06
     318 0.1053E-06
     319 0.1273E-06
     320 0.1113E-06
     321 0.1125E-06
     322 0.1203E-06
     323 0.1154E-06
     324 0.1153E-06
     325 0.1107E-06
     326 0.1150E-06
     327 0.1225E-06
     328 0.9870E-07
     329 0.9477E-07
     330 0.8939E-07
     331 0.8685E-07
     332 0.8112E-07
     333 0.8264E-07
     334 0.7387E-07
     335 0.7381E-07
     336 0.1481E-06
     337 0.1428E-06
     338 0.1144E-06
     339 0.1182E-06
     340 0.1111E-06
     341 0.9963E-07
     342 0.9829E-07
     343 0.1074E-06
     344 0.1075E-06
     345 0.1046E-06
     346 0.1043E-06
     347 0.1451E-06
     348 0.9988E-07
     349 0.9359E-07
     350 0.8344E-07
     351 0.8448E-07
     352 0.6957E-07
     353 0.8262E-07
     354 0.7853E-07
     355 0.6781E-07
     356 0.6254E-07
     357 0.6779E-07
     358 0.7719E-07
     359 0.8506E-07
     360 0.7609E-07
     361 0.7173E-07
     362 0.8894E-07
     363 0.2199E-06
     364 0.1284E-06
     365 0.1238E-06
     366 0.6250E-07
     367 0.6674E-07
     368 0.9360E-07
     369 0.7164E-07
     370 0.7849E-07
     371 0.7167E-07
     372 0.6513E-07
     373 0.6503E-07
     374 0.6268E-07
     375 0.7987E-07
     376 0.6464E-07
     377 0.6445E-07
     378 0.6615E-07
     379 0.6808E-07
     380 0.6510E-07
     381 0.6535E-07
     382 0.5927E-07
     383 0.5568E-07
     384 0.5638E-07
     385 0.7349E-07
     386 0.6891E-07
     387 0.5610E-07
     388 0.5500E-07
     389 0.5433E-07
     390 0.5419E-07
     391 0.5642E-07
     392 0.6661E-07
     393 0.6023E-07
     394 0.5560E-07
     395 0.5452E-07
     396 0.4821E-07
     397 0.4835E-07
     398 0.4752E-07
     399 0.4767E-07
     400 0.4733E-07
     401 0.4731E-07
     402 0.4967E-07
     403 0.4864E-07
     404 0.4817E-07
     405 0.4893E-07
     406 0.4808E-07
     407 0.4847E-07
     408 0.4739E-07
     409 0.4347E-07
     410 0.5238E-07
     411 0.4655E-07
     412 0.4820E-07
     413 0.4711E-07
     414 0.4760E-07
     415 0.4733E-07
     416 0.4731E-07
     417 0.4720E-07
     418 0.4728E-07
     419 0.4734E-07
     420 0.5031E-07
     421 0.4929E-07
     422 0.4774E-07
     423 0.4710E-07
     424 0.4660E-07
     425 0.4724E-07
     426 0.4696E-07
     427 0.4507E-07
     428 0.4494E-07
     429 0.4423E-07
     430 0.7747E-07
     431 0.7536E-07
     432 0.3795E-07
     433 0.3815E-07
     434 0.3993E-07
     435 0.4280E-07
     436 0.4650E-07
     437 0.8289E-07
     438 0.7692E-07
     439 0.7259E-07
     440 0.7253E-07
     441 0.7241E-07
     442 0.7861E-07
     443 0.1305E-06
     444 0.4391E-07
     445 0.3840E-07
     446 0.3348E-07
     447 0.3304E-07
     448 0.3293E-07
     449 0.1116E-06
     450 0.1109E-06
     451 0.1115E-06
     452 0.1332E-06
     453 0.1023E-06
     454 0.1019E-06
     455 0.1013E-06
     456 0.1046E-06
     457 0.1041E-06
     458 0.1037E-06
     459 0.1110E-06
     460 0.1109E-06
     461 0.9883E-07
     462 0.1581E-06
     463 0.1697E-05
     464 0.1479E-05
     465 0.1096E-05
     466 0.9566E-06
     467 0.8579E-06
     468 0.7459E-06
     469 0.6386E-06
     470 0.3013E-06
     471 0.6717E-06
     472 0.2352E-06
     473 0.1584E-06
     474 0.1333E-06
     475 0.1340E-06
     476 0.1313E-06
     477 0.1249E-06
     478 0.1139E-06
     479 0.1031E-06
     480 0.1124E-06
     481 0.1267E-06
     482 0.6393E-07
     483 0.5655E-07
     484 0.5064E-07
     485 0.6031E-07
     486 0.6094E-07
     487 0.8375E-07
     488 0.1102E-06
     489 0.1441E-06
     490 0.1892E-06
     491 0.2725E-05
     492 0.6878E-05
     493 0.3463E-05
     494 0.1211E-05
     495 0.6463E-06
     496 0.6815E-06
     497 0.6587E-06
     498 0.7217E-06
     499 0.6297E-06
     500 0.4371E-06
     501 0.4371E-06
NUMERICAL WARNING:: IterSolve: Failed convergence tolerances.
ComputeChange: NS (ITER=8) (NRM,RELC): ( 0.65874704E-03 0.55928523E-06 ) :: helmholtz equation
HelmholtzSolve: iter:    8 Assembly: (s)   36.99  347.14
HelmholtzSolve: iter:    8 Solve:    (s)  173.02 1460.41
HelmholtzSolve: 
HelmholtzSolve: -------------------------------------
HelmholtzSolve:  Helmholtz iteration           9
HelmholtzSolve:  Frequency (Hz):    27.501700000000000
HelmholtzSolve: -------------------------------------
HelmholtzSolve: 
HelmholtzSolve: Starting Assembly
HelmholtzSolve: Assembly:
: .................... 60%
: .............Assembly done
DefUtils::DefaultDirichletBCs: Setting Dirichlet boundary conditions
DefUtils::DefaultDirichletBCs: Dirichlet boundary conditions set
       1 0.1146E-05
       2 0.4210E-06
       3 0.2792E-06
       4 0.2678E-06
       5 0.3119E-06
       6 0.2877E-06
       7 0.2045E-06
       8 0.1245E-06
       9 0.1426E-06
      10 0.1189E-06
      11 0.1140E-06
      12 0.1496E-06
      13 0.1383E-06
      14 0.1498E-06
      15 0.1293E-06
      16 0.1022E-06
      17 0.1029E-06
      18 0.6960E-07
      19 0.3841E-07
      20 0.2874E-07
      21 0.2811E-07
      22 0.3205E-07
      23 0.2985E-07
      24 0.3129E-07
      25 0.2998E-07
      26 0.2963E-07
      27 0.3730E-07
      28 0.1183E-06
      29 0.8971E-07
      30 0.9475E-07
      31 0.1027E-06
      32 0.9498E-07
      33 0.2698E-06
      34 0.1046E-06
      35 0.2264E-06
      36 0.3326E-06
      37 0.4020E-06
      38 0.2908E-06
      39 0.2406E-06
      40 0.2130E-06
      41 0.2034E-06
      42 0.1888E-06
      43 0.1532E-06
      44 0.1460E-06
      45 0.1284E-06
      46 0.8936E-07
      47 0.1901E-06
      48 0.9295E-07
      49 0.1096E-06
      50 0.1064E-06
      51 0.1069E-06
      52 0.1733E-06
      53 0.1329E-06
      54 0.1275E-06
      55 0.1248E-06
      56 0.5503E-07
      57 0.5741E-07
      58 0.5548E-07
      59 0.3900E-07
      60 0.3744E-07
      61 0.8660E-07
      62 0.1525E-06
      63 0.8581E-07
      64 0.8322E-07
      65 0.8006E-07
      66 0.7853E-07
      67 0.8490E-07
      68 0.9718E-07
      69 0.8230E-07
      70 0.8530E-07
      71 0.8382E-07
      72 0.9578E-07
      73 0.8392E-07
      74 0.9040E-07
      75 0.8353E-07
      76 0.1389E-06
      77 0.1598E-06
      78 0.1677E-06
      79 0.1801E-06
      80 0.2034E-06
      81 0.2601E-06
      82 0.2628E-06
      83 0.1701E-06
      84 0.8394E-07
      85 0.9851E-07
      86 0.1374E-06
      87 0.7973E-07
      88 0.7869E-07
      89 0.7595E-07
      90 0.5440E-07
      91 0.6023E-07
      92 0.5744E-07
      93 0.5460E-07
      94 0.5520E-07
      95 0.4521E-07
      96 0.3951E-07
      97 0.3759E-07
      98 0.4041E-07
      99 0.3363E-07
     100 0.3184E-07
     101 0.3508E-07
     102 0.1226E-07
     103 0.2103E-07
     104 0.2857E-07
     105 0.1495E-07
     106 0.1361E-07
     107 0.1315E-07
     108 0.1058E-07
     109 0.1303E-07
     110 0.1355E-07
     111 0.7133E-08
     112 0.7507E-08
     113 0.7517E-08
     114 0.7837E-08
     115 0.7796E-08
     116 0.7926E-08
     117 0.8686E-08
     118 0.8986E-08
     119 0.8348E-08
     120 0.7729E-08
     121 0.7753E-08
     122 0.7695E-08
     123 0.7629E-08
     124 0.7587E-08
     125 0.9285E-08
     126 0.1305E-07
     127 0.8569E-08
     128 0.8416E-08
     129 0.1441E-07
     130 0.7234E-08
     131 0.7688E-08
     132 0.8381E-08
     133 0.7208E-08
     134 0.6935E-08
     135 0.7048E-08
     136 0.7338E-08
     137 0.7207E-08
     138 0.7030E-08
     139 0.7040E-08
     140 0.7133E-08
     141 0.7344E-08
     142 0.7616E-08
     143 0.7638E-08
     144 0.7941E-08
     145 0.1114E-07
     146 0.9703E-08
     147 0.1369E-07
     148 0.1309E-07
     149 0.1899E-07
     150 0.2074E-07
     151 0.9584E-08
     152 0.1519E-07
     153 0.1323E-07
     154 0.1271E-07
     155 0.1210E-07
     156 0.1190E-07
     157 0.1170E-07
     158 0.1160E-07
     159 0.1174E-07
     160 0.1038E-07
     161 0.1040E-07
     162 0.1045E-07
     163 0.9726E-08
     164 0.9138E-08
     165 0.1087E-07
     166 0.1031E-07
     167 0.1467E-07
     168 0.1848E-07
     169 0.1395E-07
     170 0.1316E-07
     171 0.1314E-07
     172 0.1159E-07
     173 0.1621E-07
     174 0.1304E-07
     175 0.1164E-07
     176 0.1177E-07
     177 0.1179E-07
     178 0.1119E-07
     179 0.1284E-07
     180 0.1201E-07
     181 0.1260E-07
     182 0.1164E-07
     183 0.1165E-07
     184 0.1323E-07
     185 0.1011E-07
     186 0.9989E-08
     187 0.6290E-07
     188 0.6349E-07
     189 0.1643E-07
     190 0.1492E-07
     191 0.1379E-07
     192 0.1386E-07
     193 0.1232E-07
     194 0.1189E-07
     195 0.1129E-07
     196 0.9777E-08
     197 0.1057E-07
     198 0.1114E-07
     199 0.1229E-07
     200 0.1243E-07
     201 0.1076E-07
     202 0.1270E-07
     203 0.1154E-07
     204 0.1083E-07
     205 0.1072E-07
     206 0.1143E-07
     207 0.1140E-07
     208 0.1111E-07
     209 0.1177E-07
     210 0.2155E-07
     211 0.4496E-07
     212 0.1779E-07
     213 0.1271E-07
     214 0.1056E-07
     215 0.9961E-08
     216 0.1030E-07
     217 0.1033E-07
     218 0.1112E-07
     219 0.1039E-07
     220 0.1084E-07
     221 0.1116E-07
     222 0.1066E-07
     223 0.7278E-08
     224 0.7289E-08
     225 0.7251E-08
     226 0.8860E-08
     227 0.8222E-08
     228 0.8001E-08
     229 0.7595E-08
     230 0.7615E-08
     231 0.7501E-08
     232 0.1598E-07
     233 0.1357E-07
     234 0.1338E-07
     235 0.1398E-07
     236 0.1422E-07
     237 0.1445E-07
     238 0.1403E-07
     239 0.1460E-07
     240 0.1450E-07
     241 0.1422E-07
     242 0.1433E-07
     243 0.1429E-07
     244 0.1475E-07
     245 0.1372E-07
     246 0.1200E-07
     247 0.1045E-07
     248 0.1056E-07
     249 0.1099E-07
     250 0.1775E-07
     251 0.1711E-07
     252 0.1595E-07
     253 0.1554E-07
     254 0.1515E-07
     255 0.1495E-07
     256 0.1474E-07
     257 0.1569E-07
     258 0.1522E-07
     259 0.1632E-07
     260 0.1791E-07
     261 0.1757E-07
     262 0.1965E-07
     263 0.3598E-07
     264 0.3315E-07
     265 0.3070E-07
     266 0.3191E-07
     267 0.3050E-07
     268 0.3293E-07
     269 0.3047E-07
     270 0.3943E-07
     271 0.3985E-07
     272 0.4169E-07
     273 0.5809E-07
     274 0.8323E-07
     275 0.7756E-07
     276 0.4699E-07
     277 0.3446E-07
     278 0.3405E-07
     279 0.3277E-07
     280 0.5658E-07
     281 0.4246E-07
     282 0.3367E-07
     283 0.3557E-07
     284 0.3635E-07
     285 0.5396E-07
     286 0.3408E-07
     287 0.3242E-07
     288 0.3303E-07
     289 0.3001E-07
     290 0.2860E-07
     291 0.2743E-07
     292 0.2850E-07
     293 0.2887E-07
     294 0.3179E-07
     295 0.6228E-07
     296 0.7287E-07
     297 0.3860E-07
     298 0.1888E-07
     299 0.2214E-07
     300 0.1878E-07
     301 0.2392E-07
     302 0.1963E-07
     303 0.1865E-07
     304 0.1844E-07
     305 0.1762E-07
     306 0.1747E-07
     307 0.1655E-07
     308 0.1157E-06
     309 0.5449E-07
     310 0.6202E-07
     311 0.5300E-07
     312 0.7206E-07
     313 0.6460E-07
     314 0.4903E-07
     315 0.5703E-07
     316 0.5312E-07
     317 0.4450E-07
     318 0.4476E-07
     319 0.4352E-07
     320 0.4458E-07
     321 0.1741E-06
     322 0.1154E-06
     323 0.1074E-06
     324 0.1129E-06
     325 0.1121E-06
     326 0.6530E-07
     327 0.7700E-07
     328 0.5944E-07
     329 0.6040E-07
     330 0.7253E-07
     331 0.8514E-07
     332 0.6951E-07
     333 0.6112E-07
     334 0.4935E-07
     335 0.4553E-07
     336 0.4639E-07
     337 0.4594E-07
     338 0.4590E-07
     339 0.4837E-07
     340 0.3917E-07
     341 0.4212E-07
     342 0.3668E-07
     343 0.3345E-07
     344 0.3470E-07
     345 0.3274E-07
     346 0.3287E-07
     347 0.3388E-07
     348 0.4311E-07
     349 0.4243E-07
     350 0.7960E-07
     351 0.4382E-07
     352 0.1865E-06
     353 0.3846E-06
     354 0.2672E-06
     355 0.1009E-06
     356 0.1033E-06
     357 0.9914E-07
     358 0.1048E-06
     359 0.1203E-06
     360 0.8526E-07
     361 0.1392E-06
     362 0.4327E-07
     363 0.3996E-07
     364 0.5232E-07
     365 0.1034E-06
     366 0.4509E-07
     367 0.1347E-06
     368 0.5470E-07
     369 0.6451E-07
     370 0.4051E-07
     371 0.4219E-07
     372 0.4641E-07
     373 0.4350E-07
     374 0.4345E-07
     375 0.4398E-07
     376 0.3986E-07
     377 0.3967E-07
     378 0.4001E-07
     379 0.3969E-07
     380 0.3937E-07
     381 0.4020E-07
     382 0.3828E-07
     383 0.3687E-07
     384 0.3609E-07
     385 0.3418E-07
     386 0.3526E-07
     387 0.3415E-07
     388 0.3811E-07
     389 0.5040E-07
     390 0.5193E-07
     391 0.5339E-07
     392 0.6293E-07
     393 0.3424E-07
     394 0.6593E-07
     395 0.5845E-07
     396 0.5038E-07
     397 0.4224E-07
     398 0.4044E-07
     399 0.3537E-07
     400 0.3928E-07
     401 0.3988E-07
     402 0.2826E-07
     403 0.2929E-07
     404 0.2847E-07
     405 0.2810E-07
     406 0.3319E-07
     407 0.3177E-07
     408 0.2850E-07
     409 0.3089E-07
     410 0.3728E-07
     411 0.3084E-07
     412 0.3350E-07
     413 0.3486E-07
     414 0.3148E-07
     415 0.3700E-07
     416 0.3616E-07
     417 0.3074E-07
     418 0.3690E-07
     419 0.3579E-07
     420 0.3148E-07
     421 0.3073E-07
     422 0.4335E-07
     423 0.6077E-07
     424 0.2945E-07
     425 0.1602E-07
     426 0.2082E-07
     427 0.2062E-07
     428 0.1967E-07
     429 0.1938E-07
     430 0.1802E-07
     431 0.1756E-07
     432 0.1884E-07
     433 0.1875E-07
     434 0.1852E-07
     435 0.1718E-07
     436 0.1689E-07
     437 0.1486E-07
     438 0.1337E-07
     439 0.1804E-07
     440 0.1217E-07
     441 0.1182E-07
     442 0.1223E-07
     443 0.1217E-07
     444 0.1204E-07
     445 0.1185E-07
     446 0.1799E-07
     447 0.3021E-07
     448 0.1993E-07
     449 0.1858E-07
     450 0.1711E-07
     451 0.1757E-07
     452 0.1732E-07
     453 0.1749E-07
     454 0.2442E-07
     455 0.1617E-07
     456 0.1620E-07
     457 0.2096E-07
     458 0.1766E-07
     459 0.1499E-07
     460 0.1383E-07
     461 0.1446E-07
     462 0.1549E-07
     463 0.1457E-07
     464 0.1564E-07
     465 0.1576E-07
     466 0.1566E-07
     467 0.1568E-07
     468 0.1521E-07
     469 0.1616E-07
     470 0.1557E-07
     471 0.3675E-07
     472 0.1593E-07
     473 0.1225E-07
     474 0.1358E-07
     475 0.1363E-07
     476 0.1349E-07
     477 0.1385E-07
     478 0.1357E-07
     479 0.1342E-07
     480 0.1328E-07
     481 0.1347E-07
     482 0.1414E-07
     483 0.2937E-07
     484 0.2512E-07
     485 0.3881E-07
     486 0.2115E-07
     487 0.2194E-07
     488 0.3206E-07
     489 0.3630E-07
     490 0.3013E-07
     491 0.2807E-07
     492 0.2708E-07
     493 0.2665E-07
     494 0.2658E-07
     495 0.2590E-07
     496 0.2678E-07
     497 0.2589E-07
     498 0.2701E-07
     499 0.2442E-07
     500 0.2294E-07
     501 0.2294E-07
NUMERICAL WARNING:: IterSolve: Failed convergence tolerances.
ComputeChange: NS (ITER=9) (NRM,RELC): ( 0.65874705E-03 0.15651735E-07 ) :: helmholtz equation
HelmholtzSolve: iter:    9 Assembly: (s)   34.73  381.87
HelmholtzSolve: iter:    9 Solve:    (s)  135.56 1595.97
ComputeChange: SS (ITER=1) (NRM,RELC): ( 0.65874705E-03  2.0000000     ) :: helmholtz equation
SingleSolver: Attempting to call solver
SingleSolver: Solver Equation string is: result output
ResultOutputSolver: -------------------------------------
ResultOutputSolve: Saving with prefix: case2
ResultOutputSolver: Creating list for saving - if not present
CreateListForSaving: Field Variables for Saving
ResultOutputSolver: Saving in unstructured VTK XML (.vtu) format
VtuOutputSolver: Saving results in VTK XML format with prefix: case2
VtuOutputSolver: Saving number of partitions: 1
ResultOutputSolver: -------------------------------------
ElmerSolver: *** Elmer Solver: ALL DONE ***
ElmerSolver: The end
SOLVER TOTAL TIME(CPU,REAL):      2665.48     2804.06
ELMER SOLVER FINISHED AT: 2017/08/19 00:52:35
