ELMER SOLVER (v 8.3) STARTED AT: 2017/08/19 00:05:51
ParCommInit:  Initialize #PEs:            1
MAIN: 
MAIN: =============================================================
MAIN: ElmerSolver finite element software, Welcome!
MAIN: This program is free software licensed under (L)GPL
MAIN: Copyright 1st April 1995 - , CSC - IT Center for Science Ltd.
MAIN: Webpage http://www.csc.fi/elmer, Email elmeradm@csc.fi
MAIN: Version: 8.3 (Rev: unknown, Compiled: 2017-08-17)
MAIN: =============================================================
MAIN: 
MAIN: 
MAIN: -------------------------------------
MAIN: Reading Model: case3.sif
LoadInputFile: Scanning input file: case3.sif
LoadInputFile: Loading input file: case3.sif
Model Input:  Unlisted keyword: [stress bodyforce 1 im] in section: [body force 1]
WARNING:: LoadInputFile: > Equation 3 < not used in any Body!
Loading user function library: [ResultOutputSolve]...[ResultOutputSolver_Init0]
Loading user function library: [StressSolve]...[StressSolver_Init0]
Loading user function library: [HelmholtzSolve]...[HelmholtzSolver_Init0]
LoadMesh: Base mesh name: ./.
LoadMesh: Elapsed REAL time:     0.6649 (s)
WARNING:: CheckTimer: Requesting time from non-existing timer: LoadMesh
WARNING:: ListFind: 
WARNING:: ListFind:  Requested property: [Stabilization Use Longest Element Edge], not found
WARNING:: ListFind: 
WARNING:: CheckTimer: Requesting time from non-existing timer: MeshStabParams
MAIN: -------------------------------------
Loading user function library: [ResultOutputSolve]...[ResultOutputSolver_Init]
Loading user function library: [ResultOutputSolve]...[ResultOutputSolver_bulk]
Loading user function library: [ResultOutputSolve]...[ResultOutputSolver]
Loading user function library: [StressSolve]...[StressSolver_Init]
Loading user function library: [StressSolve]...[StressSolver_bulk]
Loading user function library: [StressSolve]...[StressSolver]
OptimizeBandwidth: ---------------------------------------------------------
OptimizeBandwidth: Computing matrix structure for: linear elasticity...done.
OptimizeBandwidth: Half bandwidth without optimization: 19819
OptimizeBandwidth: 
OptimizeBandwidth: Bandwidth Optimization ...done.
OptimizeBandwidth: Half bandwidth after optimization: 1286
OptimizeBandwidth: ---------------------------------------------------------
Loading user function library: [HelmholtzSolve]...[HelmholtzSolver_Init]
Loading user function library: [HelmholtzSolve]...[HelmholtzSolver_bulk]
Loading user function library: [HelmholtzSolve]...[HelmholtzSolver]
OptimizeBandwidth: ---------------------------------------------------------
OptimizeBandwidth: Computing matrix structure for: helmholtz equation...done.
OptimizeBandwidth: Half bandwidth without optimization: 290711
OptimizeBandwidth: 
OptimizeBandwidth: Bandwidth Optimization ...done.
OptimizeBandwidth: Half bandwidth after optimization: 22938
OptimizeBandwidth: ---------------------------------------------------------
MAIN: 
MAIN: -------------------------------------
MAIN:  Steady state iteration:            1
MAIN: -------------------------------------
MAIN: 
SingleSolver: Attempting to call solver
SingleSolver: Solver Equation string is: linear elasticity
StressSolve: 
StressSolve: --------------------------------------------------
StressSolve: Solving displacements from linear elasticity model
StressSolve: --------------------------------------------------
StressSolve:  Displacemet iteration:            1
StressSolve: Starting assembly...
StressSolve: Assembly:
: .......Bulk assembly done
DefUtils::DefaultDirichletBCs: Setting Dirichlet boundary conditions
DefUtils::DefaultDirichletBCs: Dirichlet boundary conditions set
StressSolve: Set boundaries done
OptimizeBandwidth: ---------------------------------------------------------
OptimizeBandwidth: Computing matrix structure for: linear elasticity...done.
OptimizeBandwidth: Half bandwidth without optimization: 19819
OptimizeBandwidth: 
OptimizeBandwidth: Bandwidth Optimization ...done.
OptimizeBandwidth: Half bandwidth after optimization: 1286
OptimizeBandwidth: ---------------------------------------------------------
HarmonicSolve: 
HarmonicSolve: Frequency value:    0.540E+02
ComputeChange: NS (ITER=1) (NRM,RELC): ( 0.22762120E-05  2.0000000     ) :: linear elasticity
StressSolve:  Displacemet iteration:            2
StressSolve: Starting assembly...
StressSolve: Assembly:
: ......Bulk assembly done
DefUtils::DefaultDirichletBCs: Setting Dirichlet boundary conditions
DefUtils::DefaultDirichletBCs: Dirichlet boundary conditions set
StressSolve: Set boundaries done
HarmonicSolve: 
HarmonicSolve: Frequency value:    0.540E+02
ComputeChange: NS (ITER=2) (NRM,RELC): ( 0.22762120E-05  0.0000000     ) :: linear elasticity
StressSolver: Computing stresses for eigenmode: 1
StressSolver: ------------------------------------------
StressSolver: Starting Stress Computation
OptimizeBandwidth: ---------------------------------------------------------
OptimizeBandwidth: Computing matrix structure for: calculate stresses...done.
OptimizeBandwidth: Half bandwidth without optimization: 19819
OptimizeBandwidth: 
OptimizeBandwidth: Bandwidth Optimization ...done.
OptimizeBandwidth: Half bandwidth after optimization: 1286
OptimizeBandwidth: ---------------------------------------------------------
StressSolver: Solving for Stress(1,1)
StressSolver: Solving for Stress(1,2)
StressSolver: Solving for Stress(1,3)
StressSolver: Solving for Stress(2,2)
StressSolver: Solving for Stress(2,3)
StressSolver: Solving for Stress(3,3)
StressSolver: Finished Stress Computation
StressSolver: ------------------------------------------
StressSolver: ------------------------------------------
StressSolver: Starting Stress Computation
StressSolver: Solving for Stress(1,1)
SolveSystem: Solution trivially zero!
StressSolver: Solving for Stress(1,2)
SolveSystem: Solution trivially zero!
StressSolver: Solving for Stress(1,3)
SolveSystem: Solution trivially zero!
StressSolver: Solving for Stress(2,2)
SolveSystem: Solution trivially zero!
StressSolver: Solving for Stress(2,3)
SolveSystem: Solution trivially zero!
StressSolver: Solving for Stress(3,3)
SolveSystem: Solution trivially zero!
StressSolver: Finished Stress Computation
StressSolver: ------------------------------------------
StressSolver: All done
StressSolver: ------------------------------------------
ComputeChange: SS (ITER=1) (NRM,RELC): (  0.0000000      0.0000000     ) :: linear elasticity
SingleSolver: Attempting to call solver
SingleSolver: Solver Equation string is: helmholtz equation
HelmholtzSolve: 
HelmholtzSolve: -------------------------------------
HelmholtzSolve:  Helmholtz iteration           1
HelmholtzSolve:  Frequency (Hz):    53.972600000000000
HelmholtzSolve: -------------------------------------
HelmholtzSolve: 
HelmholtzSolve: Starting Assembly
HelmholtzSolve: Assembly:
: .................... 31%
: .................... 62%
: .................... 94%
: ...Assembly done
DefUtils::DefaultDirichletBCs: Setting Dirichlet boundary conditions
DefUtils::DefaultDirichletBCs: Dirichlet boundary conditions set
       1 0.5490E+00
       2 0.4207E+00
       3 0.3844E+00
       4 0.3581E+00
       5 0.3266E+00
       6 0.3072E+00
       7 0.2919E+00
       8 0.2756E+00
       9 0.2608E+00
      10 0.2475E+00
      11 0.2349E+00
      12 0.2236E+00
      13 0.2133E+00
      14 0.2039E+00
      15 0.1939E+00
      16 0.1839E+00
      17 0.1746E+00
      18 0.1655E+00
      19 0.1564E+00
      20 0.1478E+00
      21 0.1396E+00
      22 0.1315E+00
      23 0.1236E+00
      24 0.1163E+00
      25 0.1093E+00
      26 0.1022E+00
      27 0.9558E-01
      28 0.8944E-01
      29 0.8372E-01
      30 0.7881E-01
      31 0.7442E-01
      32 0.7004E-01
      33 0.6570E-01
      34 0.6185E-01
      35 0.5803E-01
      36 0.5513E-01
      37 0.5121E-01
      38 0.5083E-01
      39 0.4884E-01
      40 0.4198E-01
      41 0.4063E-01
      42 0.3987E-01
      43 0.3606E-01
      44 0.3748E-01
      45 0.3498E-01
      46 0.3450E-01
      47 0.3402E-01
      48 0.3374E-01
      49 0.3407E-01
      50 0.3349E-01
      51 0.3324E-01
      52 0.3320E-01
      53 0.3305E-01
      54 0.3286E-01
      55 0.3376E-01
      56 0.3381E-01
      57 0.3326E-01
      58 0.3328E-01
      59 0.3327E-01
      60 0.3320E-01
      61 0.3407E-01
      62 0.3364E-01
      63 0.3377E-01
      64 0.3509E-01
      65 0.3408E-01
      66 0.3428E-01
      67 0.3467E-01
      68 0.3549E-01
      69 0.3513E-01
      70 0.3692E-01
      71 0.3351E-01
      72 0.3993E-01
      73 0.3768E-01
      74 0.3788E-01
      75 0.3951E-01
      76 0.3953E-01
      77 0.3764E-01
      78 0.3759E-01
      79 0.3683E-01
      80 0.3796E-01
      81 0.3741E-01
      82 0.3745E-01
      83 0.3793E-01
      84 0.3787E-01
      85 0.3647E-01
      86 0.3562E-01
      87 0.3648E-01
      88 0.3713E-01
      89 0.3664E-01
      90 0.3655E-01
      91 0.3508E-01
      92 0.3434E-01
      93 0.3249E-01
      94 0.3388E-01
      95 0.3197E-01
      96 0.3158E-01
      97 0.3103E-01
      98 0.3060E-01
      99 0.2940E-01
     100 0.2937E-01
     101 0.2884E-01
     102 0.2864E-01
     103 0.3031E-01
     104 0.2927E-01
     105 0.2908E-01
     106 0.2920E-01
     107 0.2838E-01
     108 0.2813E-01
     109 0.2775E-01
     110 0.2829E-01
     111 0.2791E-01
     112 0.2701E-01
     113 0.2653E-01
     114 0.2570E-01
     115 0.2481E-01
     116 0.2392E-01
     117 0.2352E-01
     118 0.2389E-01
     119 0.2292E-01
     120 0.2104E-01
     121 0.2102E-01
     122 0.2089E-01
     123 0.2084E-01
     124 0.2118E-01
     125 0.2184E-01
     126 0.2208E-01
     127 0.1946E-01
     128 0.1930E-01
     129 0.1911E-01
     130 0.1931E-01
     131 0.1902E-01
     132 0.1723E-01
     133 0.1625E-01
     134 0.1618E-01
     135 0.1609E-01
     136 0.1728E-01
     137 0.1541E-01
     138 0.1487E-01
     139 0.1738E-01
     140 0.1643E-01
     141 0.1626E-01
     142 0.1693E-01
     143 0.1699E-01
     144 0.1823E-01
     145 0.1844E-01
     146 0.2002E-01
     147 0.1881E-01
     148 0.2665E-01
     149 0.2105E-01
     150 0.2656E-01
     151 0.2496E-01
     152 0.1640E-01
     153 0.1595E-01
     154 0.1693E-01
     155 0.1553E-01
     156 0.1497E-01
     157 0.1530E-01
     158 0.1220E-01
     159 0.1214E-01
     160 0.1283E-01
     161 0.1307E-01
     162 0.1263E-01
     163 0.1151E-01
     164 0.1159E-01
     165 0.1201E-01
     166 0.1072E-01
     167 0.1904E-01
     168 0.1822E-01
     169 0.1681E-01
     170 0.1644E-01
     171 0.1644E-01
     172 0.1687E-01
     173 0.1617E-01
     174 0.1537E-01
     175 0.1468E-01
     176 0.1569E-01
     177 0.1545E-01
     178 0.1546E-01
     179 0.1531E-01
     180 0.1633E-01
     181 0.1519E-01
     182 0.1436E-01
     183 0.1424E-01
     184 0.1468E-01
     185 0.1465E-01
     186 0.1274E-01
     187 0.1345E-01
     188 0.1274E-01
     189 0.1283E-01
     190 0.1155E-01
     191 0.1310E-01
     192 0.1230E-01
     193 0.1170E-01
     194 0.1169E-01
     195 0.1145E-01
     196 0.1127E-01
     197 0.1142E-01
     198 0.1137E-01
     199 0.1090E-01
     200 0.1140E-01
     201 0.1090E-01
     202 0.1117E-01
     203 0.1110E-01
     204 0.1091E-01
     205 0.1151E-01
     206 0.1281E-01
     207 0.1119E-01
     208 0.1085E-01
     209 0.1013E-01
     210 0.9663E-02
     211 0.9871E-02
     212 0.9541E-02
     213 0.9826E-02
     214 0.9791E-02
     215 0.9947E-02
     216 0.1005E-01
     217 0.9834E-02
     218 0.9548E-02
     219 0.9739E-02
     220 0.1079E-01
     221 0.1115E-01
     222 0.9963E-02
     223 0.9893E-02
     224 0.9938E-02
     225 0.9705E-02
     226 0.9636E-02
     227 0.9786E-02
     228 0.1067E-01
     229 0.7573E-02
     230 0.8779E-02
     231 0.9076E-02
     232 0.9155E-02
     233 0.9909E-02
     234 0.9290E-02
     235 0.8911E-02
     236 0.8825E-02
     237 0.8925E-02
     238 0.8767E-02
     239 0.9101E-02
     240 0.8162E-02
     241 0.8296E-02
     242 0.8248E-02
     243 0.7915E-02
     244 0.7883E-02
     245 0.7854E-02
     246 0.7765E-02
     247 0.7802E-02
     248 0.7680E-02
     249 0.7489E-02
     250 0.7447E-02
     251 0.7316E-02
     252 0.7287E-02
     253 0.7254E-02
     254 0.6783E-02
     255 0.6855E-02
     256 0.6894E-02
     257 0.6916E-02
     258 0.6911E-02
     259 0.6895E-02
     260 0.6909E-02
     261 0.7009E-02
     262 0.7026E-02
     263 0.6925E-02
     264 0.6921E-02
     265 0.6978E-02
     266 0.6890E-02
     267 0.6858E-02
     268 0.6931E-02
     269 0.6924E-02
     270 0.7003E-02
     271 0.7001E-02
     272 0.6961E-02
     273 0.7029E-02
     274 0.6898E-02
     275 0.6782E-02
     276 0.6779E-02
     277 0.6778E-02
     278 0.6721E-02
     279 0.6750E-02
     280 0.6607E-02
     281 0.6728E-02
     282 0.6675E-02
     283 0.6671E-02
     284 0.6696E-02
     285 0.6698E-02
     286 0.7306E-02
     287 0.6402E-02
     288 0.6716E-02
     289 0.6696E-02
     290 0.6696E-02
     291 0.6699E-02
     292 0.6840E-02
     293 0.7012E-02
     294 0.7082E-02
     295 0.6886E-02
     296 0.6900E-02
     297 0.6888E-02
     298 0.6841E-02
     299 0.6961E-02
     300 0.6939E-02
     301 0.6986E-02
     302 0.7084E-02
     303 0.7052E-02
     304 0.6971E-02
     305 0.6969E-02
     306 0.6914E-02
     307 0.6905E-02
     308 0.6919E-02
     309 0.6887E-02
     310 0.6865E-02
     311 0.6963E-02
     312 0.6974E-02
     313 0.6907E-02
     314 0.6972E-02
     315 0.6750E-02
     316 0.6605E-02
     317 0.6437E-02
     318 0.5690E-02
     319 0.6162E-02
     320 0.6196E-02
     321 0.6109E-02
     322 0.6489E-02
     323 0.6630E-02
     324 0.6439E-02
     325 0.6781E-02
     326 0.6847E-02
     327 0.6697E-02
     328 0.5418E-02
     329 0.1555E-01
     330 0.7438E-02
     331 0.8146E-02
     332 0.8150E-02
     333 0.8694E-02
     334 0.8562E-02
     335 0.7589E-02
     336 0.7222E-02
     337 0.8215E-02
     338 0.9966E-02
     339 0.8725E-02
     340 0.8932E-02
     341 0.8207E-02
     342 0.6240E-02
     343 0.9910E-02
     344 0.1052E-01
     345 0.9722E-02
     346 0.4194E-02
     347 0.6854E-02
     348 0.5788E-02
     349 0.6186E-02
     350 0.4295E-02
     351 0.9598E-02
     352 0.7701E-02
     353 0.8324E-02
     354 0.9197E-02
     355 0.1001E-01
     356 0.1012E-01
     357 0.1010E-01
     358 0.5570E-02
     359 0.8997E-02
     360 0.7799E-02
     361 0.6405E-02
     362 0.6176E-02
     363 0.7283E-02
     364 0.6736E-02
     365 0.6043E-02
     366 0.6002E-02
     367 0.5131E-02
     368 0.5687E-02
     369 0.6337E-02
     370 0.6169E-02
     371 0.5840E-02
     372 0.5368E-02
     373 0.5728E-02
     374 0.5582E-02
     375 0.4812E-02
     376 0.4706E-02
     377 0.4687E-02
     378 0.4501E-02
     379 0.4512E-02
     380 0.4533E-02
     381 0.4623E-02
     382 0.4544E-02
     383 0.4451E-02
     384 0.4704E-02
     385 0.4698E-02
     386 0.4678E-02
     387 0.4858E-02
     388 0.4478E-02
     389 0.4449E-02
     390 0.4476E-02
     391 0.4566E-02
     392 0.4443E-02
     393 0.4434E-02
     394 0.4225E-02
     395 0.2871E-02
     396 0.2642E-02
     397 0.2724E-02
     398 0.2423E-02
     399 0.2722E-02
     400 0.2721E-02
     401 0.2948E-02
     402 0.3030E-02
     403 0.3186E-02
     404 0.2598E-02
     405 0.2427E-02
     406 0.4057E-02
     407 0.2649E-02
     408 0.2962E-02
     409 0.2875E-02
     410 0.3721E-02
     411 0.6206E-02
     412 0.6199E-02
     413 0.3342E-02
     414 0.2946E-02
     415 0.3048E-02
     416 0.3147E-02
     417 0.3214E-02
     418 0.3109E-02
     419 0.2996E-02
     420 0.3034E-02
     421 0.2544E-02
     422 0.2589E-02
     423 0.2490E-02
     424 0.2352E-02
     425 0.2462E-02
     426 0.2775E-02
     427 0.2639E-02
     428 0.2603E-02
     429 0.2504E-02
     430 0.2532E-02
     431 0.2525E-02
     432 0.2508E-02
     433 0.2486E-02
     434 0.2490E-02
     435 0.2522E-02
     436 0.2434E-02
     437 0.3102E-02
     438 0.2842E-02
     439 0.2612E-02
     440 0.2548E-02
     441 0.2561E-02
     442 0.2497E-02
     443 0.2479E-02
     444 0.2431E-02
     445 0.2427E-02
     446 0.3742E-02
     447 0.3182E-02
     448 0.3448E-02
     449 0.2998E-02
     450 0.2704E-02
     451 0.2957E-02
     452 0.2926E-02
     453 0.2775E-02
     454 0.2743E-02
     455 0.2790E-02
     456 0.2805E-02
     457 0.2766E-02
     458 0.2677E-02
     459 0.2672E-02
     460 0.2682E-02
     461 0.2843E-02
     462 0.2769E-02
     463 0.2789E-02
     464 0.2765E-02
     465 0.2751E-02
     466 0.2761E-02
     467 0.2822E-02
     468 0.2765E-02
     469 0.2809E-02
     470 0.2845E-02
     471 0.2856E-02
     472 0.3274E-02
     473 0.2985E-02
     474 0.3365E-02
     475 0.3706E-02
     476 0.2891E-02
     477 0.2889E-02
     478 0.2894E-02
     479 0.2924E-02
     480 0.3093E-02
     481 0.3055E-02
     482 0.2964E-02
     483 0.2937E-02
     484 0.2881E-02
     485 0.3809E-02
     486 0.3206E-02
     487 0.3137E-02
     488 0.3442E-02
     489 0.3676E-02
     490 0.3860E-02
     491 0.3451E-02
     492 0.4124E-02
     493 0.4091E-02
     494 0.3801E-02
     495 0.4607E-02
     496 0.3676E-02
     497 0.3855E-02
     498 0.3744E-02
     499 0.3734E-02
     500 0.7378E-02
     501 0.7378E-02
NUMERICAL WARNING:: IterSolve: Failed convergence tolerances.
ComputeChange: NS (ITER=1) (NRM,RELC): ( 0.34913961E-01  2.0000000     ) :: helmholtz equation
HelmholtzSolve: iter:    1 Assembly: (s)   64.83   64.83
HelmholtzSolve: iter:    1 Solve:    (s)  181.81  181.81
HelmholtzSolve: 
HelmholtzSolve: -------------------------------------
HelmholtzSolve:  Helmholtz iteration           2
HelmholtzSolve:  Frequency (Hz):    53.972600000000000
HelmholtzSolve: -------------------------------------
HelmholtzSolve: 
HelmholtzSolve: Starting Assembly
HelmholtzSolve: Assembly:
: .................... 30%
: .................... 61%
: .................... 92%
: .....Assembly done
DefUtils::DefaultDirichletBCs: Setting Dirichlet boundary conditions
DefUtils::DefaultDirichletBCs: Dirichlet boundary conditions set
       1 0.1035E-01
       2 0.3065E-01
       3 0.2737E-01
       4 0.6646E-01
       5 0.4911E-01
       6 0.4335E-01
       7 0.3073E-01
       8 0.1321E-01
       9 0.1227E-01
      10 0.9448E-02
      11 0.8539E-02
      12 0.7545E-02
      13 0.7397E-02
      14 0.8279E-02
      15 0.8091E-02
      16 0.7320E-02
      17 0.6347E-02
      18 0.6287E-02
      19 0.5342E-02
      20 0.4954E-02
      21 0.4598E-02
      22 0.4457E-02
      23 0.4137E-02
      24 0.3659E-02
      25 0.3795E-02
      26 0.3456E-02
      27 0.3596E-02
      28 0.3794E-02
      29 0.3980E-02
      30 0.3711E-02
      31 0.3870E-02
      32 0.3844E-02
      33 0.3819E-02
      34 0.3788E-02
      35 0.3739E-02
      36 0.4056E-02
      37 0.4016E-02
      38 0.1543E-01
      39 0.6707E-02
      40 0.5874E-02
      41 0.5687E-02
      42 0.5457E-02
      43 0.5343E-02
      44 0.5473E-02
      45 0.5414E-02
      46 0.5517E-02
      47 0.5333E-02
      48 0.4524E-02
      49 0.6080E-02
      50 0.6191E-02
      51 0.5396E-02
      52 0.6931E-02
      53 0.4554E-02
      54 0.4287E-02
      55 0.4445E-02
      56 0.4292E-02
      57 0.4041E-02
      58 0.5446E-02
      59 0.5248E-02
      60 0.1270E-01
      61 0.1245E-01
      62 0.1214E-01
      63 0.1127E-01
      64 0.1129E-01
      65 0.1030E-01
      66 0.8573E-02
      67 0.6370E-02
      68 0.5912E-02
      69 0.7334E-02
      70 0.6401E-02
      71 0.4898E-02
      72 0.9919E-02
      73 0.6067E-02
      74 0.5239E-02
      75 0.4837E-02
      76 0.3867E-02
      77 0.3922E-02
      78 0.3768E-02
      79 0.3548E-02
      80 0.3497E-02
      81 0.3510E-02
      82 0.3087E-02
      83 0.3046E-02
      84 0.2994E-02
      85 0.2902E-02
      86 0.2716E-02
      87 0.2819E-02
      88 0.2070E-02
      89 0.2016E-02
      90 0.2035E-02
      91 0.2154E-02
      92 0.2089E-02
      93 0.1997E-02
      94 0.1951E-02
      95 0.6476E-02
      96 0.3656E-02
      97 0.6356E-02
      98 0.1907E-02
      99 0.1821E-02
     100 0.1953E-02
     101 0.1882E-02
     102 0.4218E-02
     103 0.2219E-02
     104 0.1340E-02
     105 0.1324E-02
     106 0.1340E-02
     107 0.1240E-02
     108 0.1150E-02
     109 0.1004E-02
     110 0.9942E-03
     111 0.9877E-03
     112 0.9814E-03
     113 0.1163E-02
     114 0.1012E-02
     115 0.1013E-02
     116 0.9434E-03
     117 0.1069E-02
     118 0.9597E-03
     119 0.9576E-03
     120 0.1095E-02
     121 0.1282E-02
     122 0.1149E-02
     123 0.1117E-02
     124 0.1121E-02
     125 0.1159E-02
     126 0.1127E-02
     127 0.1116E-02
     128 0.1059E-02
     129 0.1089E-02
     130 0.1010E-02
     131 0.9978E-03
     132 0.1593E-02
     133 0.1220E-02
     134 0.1278E-02
     135 0.1146E-02
     136 0.1132E-02
     137 0.1057E-02
     138 0.1067E-02
     139 0.1126E-02
     140 0.1115E-02
     141 0.1085E-02
     142 0.1096E-02
     143 0.1303E-02
     144 0.1169E-02
     145 0.6151E-02
     146 0.5924E-02
     147 0.4409E-02
     148 0.3392E-02
     149 0.4070E-02
     150 0.4333E-02
     151 0.4375E-02
     152 0.3932E-02
     153 0.3989E-02
     154 0.3227E-02
     155 0.3602E-02
     156 0.4217E-02
     157 0.3597E-02
     158 0.3022E-02
     159 0.2690E-02
     160 0.1894E-02
     161 0.1875E-02
     162 0.1468E-02
     163 0.1564E-02
     164 0.1521E-02
     165 0.4328E-02
     166 0.3450E-02
     167 0.3351E-02
     168 0.3280E-01
     169 0.1983E-01
     170 0.1231E-01
     171 0.1207E-01
     172 0.1271E-01
     173 0.1717E-01
     174 0.1533E-01
     175 0.4779E-01
     176 0.1506E-01
     177 0.7836E-02
     178 0.5528E-02
     179 0.6382E-02
     180 0.1137E-01
     181 0.9311E-02
     182 0.4675E-02
     183 0.2171E-02
     184 0.3153E-02
     185 0.2880E-02
     186 0.3049E-02
     187 0.2904E-02
     188 0.2358E-02
     189 0.2140E-02
     190 0.2239E-02
     191 0.2281E-02
     192 0.2778E-02
     193 0.2288E-02
     194 0.3219E-02
     195 0.2981E-02
     196 0.2806E-02
     197 0.1865E-02
     198 0.1994E-02
     199 0.2386E-02
     200 0.1896E-02
     201 0.2016E-02
     202 0.1976E-02
     203 0.1886E-02
     204 0.1851E-02
     205 0.1696E-02
     206 0.2069E-02
     207 0.1867E-02
     208 0.2317E-02
     209 0.2688E-02
     210 0.4861E-02
     211 0.1600E-02
     212 0.1341E-02
     213 0.1362E-02
     214 0.1435E-02
     215 0.1342E-02
     216 0.1347E-02
     217 0.1367E-02
     218 0.1385E-02
     219 0.1386E-02
     220 0.2051E-02
     221 0.1449E-02
     222 0.1528E-02
     223 0.1620E-02
     224 0.1412E-02
     225 0.1473E-02
     226 0.1417E-02
     227 0.2757E-02
     228 0.1393E-02
     229 0.1379E-02
     230 0.1378E-02
     231 0.1392E-02
     232 0.1549E-02
     233 0.1396E-02
     234 0.1365E-02
     235 0.1354E-02
     236 0.1355E-02
     237 0.1402E-02
     238 0.2934E-02
     239 0.1652E-02
     240 0.1468E-02
     241 0.1440E-02
     242 0.1436E-02
     243 0.1517E-02
     244 0.1431E-02
     245 0.1329E-02
     246 0.1307E-02
     247 0.1294E-02
     248 0.1296E-02
     249 0.1297E-02
     250 0.1299E-02
     251 0.1311E-02
     252 0.1294E-02
     253 0.1334E-02
     254 0.3089E-02
     255 0.4285E-02
     256 0.2655E-02
     257 0.2067E-02
     258 0.2078E-02
     259 0.2261E-02
     260 0.4668E-02
     261 0.4368E-02
     262 0.5356E-02
     263 0.5629E-02
     264 0.3094E-02
     265 0.3531E-02
     266 0.2502E-02
     267 0.2276E-02
     268 0.2006E-02
     269 0.2154E-02
     270 0.1905E-02
     271 0.1832E-02
     272 0.2102E-02
     273 0.1799E-02
     274 0.1818E-02
     275 0.1654E-02
     276 0.1800E-02
     277 0.1666E-02
     278 0.1970E-02
     279 0.1807E-02
     280 0.1667E-02
     281 0.1876E-02
     282 0.1706E-02
     283 0.1940E-02
     284 0.1717E-02
     285 0.1648E-02
     286 0.1636E-02
     287 0.1633E-02
     288 0.1649E-02
     289 0.1713E-02
     290 0.1797E-02
     291 0.1872E-02
     292 0.1850E-02
     293 0.1763E-02
     294 0.1812E-02
     295 0.1838E-02
     296 0.1822E-02
     297 0.2113E-02
     298 0.1806E-02
     299 0.1869E-02
     300 0.1816E-02
     301 0.1793E-02
     302 0.1796E-02
     303 0.1797E-02
     304 0.1749E-02
     305 0.1870E-02
     306 0.1788E-02
     307 0.2289E-02
     308 0.1724E-02
     309 0.5850E-02
     310 0.1724E-02
     311 0.1719E-02
     312 0.1710E-02
     313 0.1766E-02
     314 0.1772E-02
     315 0.1792E-02
     316 0.1764E-02
     317 0.1760E-02
     318 0.1785E-02
     319 0.1822E-02
     320 0.1767E-02
     321 0.1808E-02
     322 0.1796E-02
     323 0.1847E-02
     324 0.1743E-02
     325 0.3788E-02
     326 0.2163E-02
     327 0.2131E-02
     328 0.2184E-02
     329 0.1955E-02
     330 0.1849E-02
     331 0.3851E-02
     332 0.4237E-02
     333 0.2212E-02
     334 0.3241E-02
     335 0.2411E-02
     336 0.2782E-02
     337 0.3587E-02
     338 0.5706E-02
     339 0.7240E-02
     340 0.8011E-02
     341 0.8655E-02
     342 0.4211E-02
     343 0.4307E-02
     344 0.4970E-02
     345 0.4870E-02
     346 0.4870E-02
     347 0.4774E-02
     348 0.4840E-02
     349 0.4711E-02
     350 0.4763E-02
     351 0.4713E-02
     352 0.6114E-02
     353 0.7517E-02
     354 0.5509E-02
     355 0.5037E-02
     356 0.4237E-02
     357 0.4636E-02
     358 0.3838E-02
     359 0.4301E-02
     360 0.4253E-02
     361 0.4309E-02
     362 0.4368E-02
     363 0.4408E-02
     364 0.4868E-02
     365 0.5173E-02
     366 0.5428E-02
     367 0.5901E-02
     368 0.3520E-02
     369 0.4060E-02
     370 0.4496E-02
     371 0.4924E-02
     372 0.6825E-02
     373 0.5458E-02
     374 0.5870E-02
     375 0.5267E-02
     376 0.5139E-02
     377 0.5151E-02
     378 0.5091E-02
     379 0.4919E-02
     380 0.4929E-02
     381 0.3364E-02
     382 0.2886E-02
     383 0.3653E-02
     384 0.3595E-02
     385 0.3596E-02
     386 0.3828E-02
     387 0.3630E-02
     388 0.8306E-02
     389 0.7230E-02
     390 0.5735E-02
     391 0.5333E-02
     392 0.6511E-02
     393 0.4421E-02
     394 0.3507E-02
     395 0.4145E-02
     396 0.4476E-02
     397 0.4451E-02
     398 0.4464E-02
     399 0.4572E-02
     400 0.4618E-02
     401 0.3416E-02
     402 0.3016E-02
     403 0.3109E-02
     404 0.2968E-02
     405 0.3482E-02
     406 0.3545E-02
     407 0.3393E-02
     408 0.3638E-02
     409 0.3761E-02
     410 0.3296E-02
     411 0.3412E-02
     412 0.3295E-02
     413 0.3306E-02
     414 0.3373E-02
     415 0.3443E-02
     416 0.3631E-02
     417 0.3099E-02
     418 0.3046E-02
     419 0.2692E-02
     420 0.1976E-02
     421 0.1985E-02
     422 0.7124E-02
     423 0.2805E-02
     424 0.2086E-02
     425 0.2491E-02
     426 0.3052E-02
     427 0.1732E-02
     428 0.1693E-02
     429 0.1879E-02
     430 0.1818E-02
     431 0.2493E-02
     432 0.2288E-02
     433 0.2949E-02
     434 0.2193E-02
     435 0.2170E-02
     436 0.2080E-02
     437 0.2296E-02
     438 0.2280E-02
     439 0.1954E-02
     440 0.2718E-02
     441 0.6030E-02
     442 0.3113E-02
     443 0.3142E-02
     444 0.2516E-02
     445 0.2590E-02
     446 0.2272E-02
     447 0.2453E-02
     448 0.2825E-02
     449 0.2660E-02
     450 0.2446E-02
     451 0.2272E-02
     452 0.2346E-02
     453 0.2203E-02
     454 0.2967E-02
     455 0.2331E-02
     456 0.2249E-02
     457 0.2265E-02
     458 0.2308E-02
     459 0.2314E-02
     460 0.2279E-02
     461 0.2358E-02
     462 0.2443E-02
     463 0.2365E-02
     464 0.1983E-02
     465 0.2241E-02
     466 0.2816E-02
     467 0.2944E-02
     468 0.2767E-02
     469 0.2680E-02
     470 0.2696E-02
     471 0.2716E-02
     472 0.2458E-02
     473 0.2355E-02
     474 0.2586E-02
     475 0.2017E-02
     476 0.1691E-02
     477 0.1522E-02
     478 0.1618E-02
     479 0.1568E-02
     480 0.1507E-02
     481 0.1328E-02
     482 0.1367E-02
     483 0.1348E-02
     484 0.1387E-02
     485 0.1315E-02
     486 0.1026E-02
     487 0.1094E-02
     488 0.1387E-02
     489 0.1705E-02
     490 0.1741E-02
     491 0.1750E-02
     492 0.1773E-02
     493 0.1603E-02
     494 0.1331E-02
     495 0.6501E-02
     496 0.6581E-02
     497 0.1925E-02
     498 0.1952E-02
     499 0.5404E-02
     500 0.5535E-02
     501 0.5535E-02
NUMERICAL WARNING:: IterSolve: Failed convergence tolerances.
ComputeChange: NS (ITER=2) (NRM,RELC): ( 0.36569017E-01 0.46306298E-01 ) :: helmholtz equation
HelmholtzSolve: iter:    2 Assembly: (s)   65.47  130.30
HelmholtzSolve: iter:    2 Solve:    (s)  149.01  330.82
HelmholtzSolve: 
HelmholtzSolve: -------------------------------------
HelmholtzSolve:  Helmholtz iteration           3
HelmholtzSolve:  Frequency (Hz):    53.972600000000000
HelmholtzSolve: -------------------------------------
HelmholtzSolve: 
HelmholtzSolve: Starting Assembly
HelmholtzSolve: Assembly:
: .................... 55%
: ................Assembly done
DefUtils::DefaultDirichletBCs: Setting Dirichlet boundary conditions
DefUtils::DefaultDirichletBCs: Dirichlet boundary conditions set
       1 0.2884E+00
       2 0.4073E-01
       3 0.2775E-01
       4 0.3003E-01
       5 0.5058E-01
       6 0.7437E-01
       7 0.1988E-01
       8 0.1124E-01
       9 0.9184E-02
      10 0.8394E-02
      11 0.8143E-02
      12 0.7920E-02
      13 0.6998E-02
      14 0.5806E-02
      15 0.9924E-02
      16 0.1334E-01
      17 0.1086E-01
      18 0.9155E-02
      19 0.1040E-01
      20 0.9622E-02
      21 0.9262E-02
      22 0.9053E-02
      23 0.8706E-02
      24 0.7742E-02
      25 0.8204E-02
      26 0.9155E-02
      27 0.9882E-02
      28 0.9999E-02
      29 0.1017E-01
      30 0.1074E-01
      31 0.9449E-02
      32 0.9130E-02
      33 0.9147E-02
      34 0.8650E-02
      35 0.8524E-02
      36 0.7300E-02
      37 0.7233E-02
      38 0.6736E-02
      39 0.6282E-02
      40 0.4862E-02
      41 0.3874E-02
      42 0.3957E-02
      43 0.4110E-02
      44 0.3232E-02
      45 0.5385E-02
      46 0.3271E-02
      47 0.2630E-02
      48 0.2729E-02
      49 0.2381E-02
      50 0.3105E-02
      51 0.2945E-02
      52 0.3225E-02
      53 0.2538E-02
      54 0.2578E-02
      55 0.2546E-02
      56 0.2425E-02
      57 0.2352E-02
      58 0.2202E-02
      59 0.2194E-02
      60 0.2281E-02
      61 0.2013E-02
      62 0.1952E-02
      63 0.1958E-02
      64 0.1860E-02
      65 0.1854E-02
      66 0.1841E-02
      67 0.1826E-02
      68 0.1851E-02
      69 0.4281E-02
      70 0.4030E-02
      71 0.1933E-02
      72 0.2029E-02
      73 0.1923E-02
      74 0.1850E-02
      75 0.2294E-02
      76 0.7263E-02
      77 0.5550E-02
      78 0.5873E-02
      79 0.1855E-02
      80 0.1870E-02
      81 0.2242E-02
      82 0.1917E-02
      83 0.2090E-01
      84 0.1663E-01
      85 0.3086E-02
      86 0.3125E-02
      87 0.2858E-02
      88 0.4293E-02
      89 0.2125E-02
      90 0.2051E-02
      91 0.2331E-02
      92 0.1947E-02
      93 0.1599E-02
      94 0.1571E-02
      95 0.1573E-02
      96 0.1595E-02
      97 0.1586E-02
      98 0.1626E-02
      99 0.1617E-02
     100 0.1610E-02
     101 0.1616E-02
     102 0.1664E-02
     103 0.1637E-02
     104 0.1772E-02
     105 0.1711E-02
     106 0.1693E-02
     107 0.1718E-02
     108 0.1695E-02
     109 0.1693E-02
     110 0.1736E-02
     111 0.1905E-02
     112 0.3022E-02
     113 0.2244E-02
     114 0.2015E-02
     115 0.1622E-02
     116 0.1584E-02
     117 0.1594E-02
     118 0.1592E-02
     119 0.1582E-02
     120 0.1622E-02
     121 0.1617E-02
     122 0.1584E-02
     123 0.1803E-02
     124 0.1859E-02
     125 0.1838E-02
     126 0.1728E-02
     127 0.1666E-02
     128 0.1708E-02
     129 0.1701E-02
     130 0.1848E-02
     131 0.2730E-02
     132 0.1750E-02
     133 0.1650E-02
     134 0.1573E-02
     135 0.1537E-02
     136 0.1512E-02
     137 0.1676E-02
     138 0.1595E-02
     139 0.1536E-02
     140 0.1784E-02
     141 0.1687E-02
     142 0.1681E-02
     143 0.1789E-02
     144 0.1802E-02
     145 0.1980E-02
     146 0.1923E-02
     147 0.1876E-02
     148 0.1961E-02
     149 0.1958E-02
     150 0.1943E-02
     151 0.2008E-02
     152 0.1965E-02
     153 0.1910E-02
     154 0.1944E-02
     155 0.1930E-02
     156 0.1940E-02
     157 0.1629E-02
     158 0.1853E-02
     159 0.1800E-02
     160 0.1675E-02
     161 0.2523E-02
     162 0.2641E-02
     163 0.2553E-02
     164 0.2590E-02
     165 0.2271E-02
     166 0.2235E-02
     167 0.2214E-02
     168 0.2267E-02
     169 0.2267E-02
     170 0.2076E-02
     171 0.4028E-02
     172 0.4615E-02
     173 0.3180E-02
     174 0.2906E-02
     175 0.2858E-02
     176 0.2682E-02
     177 0.3048E-02
     178 0.2485E-02
     179 0.2812E-02
     180 0.2779E-02
     181 0.2743E-02
     182 0.2735E-02
     183 0.2715E-02
     184 0.2714E-02
     185 0.2734E-02
     186 0.2698E-02
     187 0.2729E-02
     188 0.2949E-02
     189 0.2846E-02
     190 0.2679E-02
     191 0.2716E-02
     192 0.2633E-02
     193 0.2581E-02
     194 0.2555E-02
     195 0.2531E-02
     196 0.2714E-02
     197 0.2784E-02
     198 0.2511E-02
     199 0.2503E-02
     200 0.2467E-02
     201 0.2464E-02
     202 0.2509E-02
     203 0.2504E-02
     204 0.2725E-02
     205 0.2554E-02
     206 0.2681E-02
     207 0.2751E-02
     208 0.2587E-02
     209 0.3675E-02
     210 0.4969E-02
     211 0.3563E-02
     212 0.2856E-02
     213 0.2932E-02
     214 0.3759E-02
     215 0.4080E-02
     216 0.3944E-02
     217 0.3924E-02
     218 0.3648E-02
     219 0.4357E-02
     220 0.4259E-02
     221 0.4577E-02
     222 0.4588E-02
     223 0.4889E-02
     224 0.4749E-02
     225 0.4430E-02
     226 0.4425E-02
     227 0.4248E-02
     228 0.4256E-02
     229 0.4257E-02
     230 0.4260E-02
     231 0.4628E-02
     232 0.9582E-02
     233 0.7268E-02
     234 0.1124E-01
     235 0.5174E-02
     236 0.5312E-02
     237 0.2791E-01
     238 0.5634E-02
     239 0.4999E-02
     240 0.4573E-02
     241 0.4546E-02
     242 0.4560E-02
     243 0.4268E-02
     244 0.5821E-02
     245 0.4560E-02
     246 0.4810E-02
     247 0.9359E-02
     248 0.9319E-02
     249 0.9410E-02
     250 0.6856E-02
     251 0.5289E-02
     252 0.5068E-02
     253 0.5047E-02
     254 0.4793E-02
     255 0.4960E-02
     256 0.4830E-02
     257 0.5669E-02
     258 0.6203E-02
     259 0.4926E-02
     260 0.1240E-01
     261 0.8608E-02
     262 0.8943E-02
     263 0.8010E-02
     264 0.6745E-02
     265 0.1143E-01
     266 0.8838E-02
     267 0.1016E-01
     268 0.8293E-02
     269 0.8387E-02
     270 0.6521E-02
     271 0.5679E-02
     272 0.5747E-02
     273 0.5879E-02
     274 0.6783E-02
     275 0.1086E-01
     276 0.1584E-01
     277 0.1389E-01
     278 0.1186E-01
     279 0.2714E-01
     280 0.1031E-01
     281 0.6922E-02
     282 0.7122E-02
     283 0.7503E-02
     284 0.9387E-02
     285 0.8656E-02
     286 0.7332E-02
     287 0.6786E-02
     288 0.6932E-02
     289 0.6854E-02
     290 0.6764E-02
     291 0.6860E-02
     292 0.7520E-02
     293 0.7078E-02
     294 0.6091E-02
     295 0.6824E-02
     296 0.6571E-02
     297 0.6744E-02
     298 0.6738E-02
     299 0.7049E-02
     300 0.7564E-02
     301 0.7199E-02
     302 0.7496E-02
     303 0.6837E-02
     304 0.6659E-02
     305 0.6359E-02
     306 0.7194E-02
     307 0.7030E-02
     308 0.8066E-02
     309 0.1041E-01
     310 0.8778E-02
     311 0.7484E-02
     312 0.9017E-02
     313 0.7117E-02
     314 0.7434E-02
     315 0.6963E-02
     316 0.8338E-02
     317 0.6902E-02
     318 0.7067E-02
     319 0.6471E-02
     320 0.6347E-02
     321 0.6344E-02
     322 0.6407E-02
     323 0.6411E-02
     324 0.6391E-02
     325 0.2648E-01
     326 0.2987E-01
     327 0.1160E-01
     328 0.1027E-01
     329 0.2120E-01
     330 0.2364E-01
     331 0.2122E-01
     332 0.2411E-01
     333 0.1146E-01
     334 0.1087E-01
     335 0.8846E-02
     336 0.7766E-02
     337 0.7256E-02
     338 0.7429E-02
     339 0.1377E+00
     340 0.3537E+00
     341 0.1065E+00
     342 0.4600E-01
     343 0.3926E-01
     344 0.2978E-01
     345 0.3430E-01
     346 0.1596E-01
     347 0.1297E-01
     348 0.1209E-01
     349 0.1447E-01
     350 0.1104E-01
     351 0.1503E-01
     352 0.1246E-01
     353 0.1826E-01
     354 0.2457E-01
     355 0.2061E-01
     356 0.1600E-01
     357 0.1054E-01
     358 0.9616E-02
     359 0.9466E-02
     360 0.9628E-02
     361 0.8949E-02
     362 0.8138E-02
     363 0.7966E-02
     364 0.7630E-02
     365 0.8576E-02
     366 0.8618E-02
     367 0.8784E-02
     368 0.8915E-02
     369 0.8862E-02
     370 0.8792E-02
     371 0.9630E-02
     372 0.9538E-02
     373 0.9041E-02
     374 0.8845E-02
     375 0.8834E-02
     376 0.8684E-02
     377 0.8797E-02
     378 0.8681E-02
     379 0.8814E-02
     380 0.8616E-02
     381 0.8604E-02
     382 0.8548E-02
     383 0.8535E-02
     384 0.8696E-02
     385 0.8753E-02
     386 0.8738E-02
     387 0.8658E-02
     388 0.8610E-02
     389 0.8761E-02
     390 0.7734E-02
     391 0.7965E-02
     392 0.8003E-02
     393 0.8246E-02
     394 0.8553E-02
     395 0.8491E-02
     396 0.8670E-02
     397 0.8565E-02
     398 0.8349E-02
     399 0.8139E-02
     400 0.8118E-02
     401 0.8145E-02
     402 0.8447E-02
     403 0.8759E-02
     404 0.8684E-02
     405 0.9116E-02
     406 0.9765E-02
     407 0.1016E-01
     408 0.1021E-01
     409 0.8801E-02
     410 0.5056E-01
     411 0.2837E-01
     412 0.1300E-01
     413 0.1257E-01
     414 0.1816E-01
     415 0.1095E-01
     416 0.9937E-02
     417 0.1268E-01
     418 0.8851E-02
     419 0.1016E-01
     420 0.1173E-01
     421 0.1072E-01
     422 0.1037E-01
     423 0.1447E-01
     424 0.1160E-01
     425 0.8937E-02
     426 0.8989E-02
     427 0.9134E-02
     428 0.9234E-02
     429 0.9813E-02
     430 0.1025E-01
     431 0.1034E-01
     432 0.9740E-02
     433 0.1107E-01
     434 0.9806E-02
     435 0.8884E-02
     436 0.8035E-02
     437 0.9142E-02
     438 0.9314E-02
     439 0.9266E-02
     440 0.9065E-02
     441 0.9121E-02
     442 0.9037E-02
     443 0.8725E-02
     444 0.8413E-02
     445 0.9538E-02
     446 0.7525E-02
     447 0.7568E-02
     448 0.7419E-02
     449 0.7412E-02
     450 0.7470E-02
     451 0.7991E-02
     452 0.7379E-02
     453 0.7377E-02
     454 0.8150E-02
     455 0.7258E-02
     456 0.7409E-02
     457 0.7204E-02
     458 0.7191E-02
     459 0.7504E-02
     460 0.7533E-02
     461 0.7915E-02
     462 0.1024E-01
     463 0.8745E-02
     464 0.7707E-02
     465 0.1026E-01
     466 0.9141E-02
     467 0.9305E-02
     468 0.1227E-01
     469 0.8326E-02
     470 0.8517E-02
     471 0.8030E-02
     472 0.8101E-02
     473 0.8434E-02
     474 0.8414E-02
     475 0.8091E-02
     476 0.8006E-02
     477 0.7994E-02
     478 0.1165E-01
     479 0.1227E-01
     480 0.1135E-01
     481 0.8476E-02
     482 0.8101E-02
     483 0.7805E-02
     484 0.7543E-02
     485 0.7509E-02
     486 0.7298E-02
     487 0.7288E-02
     488 0.7228E-02
     489 0.6998E-02
     490 0.1165E-01
     491 0.9665E-02
     492 0.9202E-02
     493 0.9946E-02
     494 0.1228E-01
     495 0.9007E-02
     496 0.6489E-02
     497 0.6490E-02
     498 0.6807E-02
     499 0.6880E-02
     500 0.7808E-02
     501 0.7808E-02
NUMERICAL WARNING:: IterSolve: Failed convergence tolerances.
ComputeChange: NS (ITER=3) (NRM,RELC): ( 0.35063926E-01 0.42022314E-01 ) :: helmholtz equation
HelmholtzSolve: iter:    3 Assembly: (s)   37.15  167.45
HelmholtzSolve: iter:    3 Solve:    (s)  125.03  455.84
HelmholtzSolve: 
HelmholtzSolve: -------------------------------------
HelmholtzSolve:  Helmholtz iteration           4
HelmholtzSolve:  Frequency (Hz):    53.972600000000000
HelmholtzSolve: -------------------------------------
HelmholtzSolve: 
HelmholtzSolve: Starting Assembly
HelmholtzSolve: Assembly:
: .................... 56%
: ...............Assembly done
DefUtils::DefaultDirichletBCs: Setting Dirichlet boundary conditions
DefUtils::DefaultDirichletBCs: Dirichlet boundary conditions set
       1 0.1262E-01
       2 0.1053E-01
       3 0.7392E-01
       4 0.1576E+00
       5 0.1138E+00
       6 0.2973E+00
       7 0.1966E+00
       8 0.2354E+00
       9 0.2390E+00
      10 0.9990E-01
      11 0.7443E-01
      12 0.7631E-01
      13 0.5725E-01
      14 0.5823E-01
      15 0.5333E-01
      16 0.4229E-01
      17 0.4463E-01
      18 0.3770E-01
      19 0.3823E-01
      20 0.5113E-01
      21 0.9032E-01
      22 0.1465E+00
      23 0.1095E+00
      24 0.1220E+00
      25 0.2045E+00
      26 0.8567E-01
      27 0.1114E+00
      28 0.9756E-01
      29 0.1055E+00
      30 0.9753E-01
      31 0.9270E-01
      32 0.7370E-01
      33 0.1324E+00
      34 0.7814E-01
      35 0.8434E-01
      36 0.1107E+00
      37 0.9717E-01
      38 0.1469E+00
      39 0.1174E+00
      40 0.5128E-01
      41 0.5132E-01
      42 0.6200E-01
      43 0.9831E-01
      44 0.8056E-01
      45 0.6391E-01
      46 0.3194E-01
      47 0.2380E-01
      48 0.1856E-01
      49 0.3120E-01
      50 0.2789E-01
      51 0.2215E-01
      52 0.1968E-01
      53 0.1568E-01
      54 0.1192E-01
      55 0.1659E-01
      56 0.1086E-01
      57 0.9551E-02
      58 0.9410E-02
      59 0.9218E-02
      60 0.9093E-02
      61 0.9359E-02
      62 0.9897E-02
      63 0.1009E-01
      64 0.1051E-01
      65 0.1134E-01
      66 0.1091E-01
      67 0.1094E-01
      68 0.1057E-01
      69 0.6161E-02
      70 0.6052E-02
      71 0.6237E-02
      72 0.6237E-02
      73 0.5999E-02
      74 0.6107E-02
      75 0.6010E-02
      76 0.5965E-02
      77 0.5857E-02
      78 0.6051E-02
      79 0.6063E-02
      80 0.6099E-02
      81 0.6044E-02
      82 0.6004E-02
      83 0.5931E-02
      84 0.5945E-02
      85 0.5933E-02
      86 0.6060E-02
      87 0.6374E-02
      88 0.6258E-02
      89 0.6761E-02
      90 0.6711E-02
      91 0.1456E-01
      92 0.1608E-01
      93 0.3717E-01
      94 0.1153E-01
      95 0.1122E-01
      96 0.1170E-01
      97 0.1332E-01
      98 0.2184E-01
      99 0.2121E-01
     100 0.1905E-01
     101 0.5425E-01
     102 0.4523E-01
     103 0.4350E-01
     104 0.5286E-01
     105 0.5167E-01
     106 0.4878E-01
     107 0.4778E-01
     108 0.3959E-01
     109 0.4211E-01
     110 0.3752E-01
     111 0.3739E-01
     112 0.3891E-01
     113 0.4781E-01
     114 0.4126E-01
     115 0.3748E-01
     116 0.3004E-01
     117 0.6010E-01
     118 0.6566E-01
     119 0.2265E-01
     120 0.2195E-01
     121 0.2199E-01
     122 0.1917E-01
     123 0.1962E-01
     124 0.2476E-01
     125 0.2994E-01
     126 0.2021E-01
     127 0.1426E-01
     128 0.1513E-01
     129 0.1210E-01
     130 0.1106E-01
     131 0.1020E-01
     132 0.2243E-01
     133 0.1865E-01
     134 0.1914E-01
     135 0.1531E-01
     136 0.6792E-02
     137 0.1725E-01
     138 0.1330E-01
     139 0.1244E-01
     140 0.1215E-01
     141 0.1430E-01
     142 0.9062E-02
     143 0.9769E-02
     144 0.8766E-02
     145 0.1890E-01
     146 0.1654E-01
     147 0.1974E-01
     148 0.2243E-01
     149 0.1303E-01
     150 0.1221E-01
     151 0.1096E-01
     152 0.1125E-01
     153 0.1099E-01
     154 0.1161E-01
     155 0.1198E-01
     156 0.1840E-01
     157 0.2522E-01
     158 0.7298E-02
     159 0.6562E-02
     160 0.8041E-02
     161 0.5188E-02
     162 0.4884E-02
     163 0.4373E-02
     164 0.4249E-02
     165 0.4224E-02
     166 0.4236E-02
     167 0.4174E-02
     168 0.4214E-02
     169 0.4252E-02
     170 0.5849E-02
     171 0.4806E-02
     172 0.3352E-02
     173 0.5961E-02
     174 0.8870E-02
     175 0.3664E-01
     176 0.2275E-02
     177 0.2450E-02
     178 0.2809E-02
     179 0.2442E-02
     180 0.2405E-02
     181 0.2539E-02
     182 0.2456E-02
     183 0.3216E-02
     184 0.2916E-02
     185 0.2823E-02
     186 0.2801E-02
     187 0.2673E-02
     188 0.2727E-02
     189 0.2487E-02
     190 0.3455E-02
     191 0.6788E-02
     192 0.3750E-02
     193 0.3265E-02
     194 0.3609E-02
     195 0.3985E-02
     196 0.3654E-02
     197 0.3323E-02
     198 0.3722E-02
     199 0.3426E-02
     200 0.4344E-02
     201 0.4284E-02
     202 0.4125E-02
     203 0.8446E-02
     204 0.5969E-02
     205 0.4468E-02
     206 0.5206E-02
     207 0.4352E-02
     208 0.5602E-02
     209 0.4832E-02
     210 0.7326E-02
     211 0.1385E-01
     212 0.8353E-02
     213 0.6994E-02
     214 0.8429E-02
     215 0.6077E-02
     216 0.8254E-02
     217 0.1071E-01
     218 0.5132E-02
     219 0.9227E-02
     220 0.4719E-02
     221 0.4203E-02
     222 0.8728E-02
     223 0.6605E-02
     224 0.5030E-02
     225 0.4506E-02
     226 0.4801E-02
     227 0.4204E-02
     228 0.4270E-02
     229 0.1161E-01
     230 0.1268E-01
     231 0.1134E-01
     232 0.1127E-01
     233 0.1204E-01
     234 0.9299E-02
     235 0.6340E-02
     236 0.7862E-02
     237 0.7894E-02
     238 0.6953E-02
     239 0.7284E-02
     240 0.4276E-01
     241 0.2253E-01
     242 0.1588E-01
     243 0.7788E-02
     244 0.7779E-02
     245 0.8937E-02
     246 0.8526E-02
     247 0.8089E-02
     248 0.7886E-02
     249 0.7889E-02
     250 0.7824E-02
     251 0.8226E-02
     252 0.6986E-02
     253 0.6921E-02
     254 0.7258E-02
     255 0.7166E-02
     256 0.7016E-02
     257 0.6987E-02
     258 0.6979E-02
     259 0.6632E-02
     260 0.6652E-02
     261 0.6684E-02
     262 0.6661E-02
     263 0.6679E-02
     264 0.6069E-02
     265 0.5975E-02
     266 0.6559E-02
     267 0.6427E-02
     268 0.6324E-02
     269 0.5938E-02
     270 0.5821E-02
     271 0.5560E-02
     272 0.5588E-02
     273 0.5579E-02
     274 0.5811E-02
     275 0.4926E-02
     276 0.7134E-02
     277 0.6876E-02
     278 0.5595E-02
     279 0.5733E-02
     280 0.4600E-02
     281 0.4557E-02
     282 0.4391E-02
     283 0.4401E-02
     284 0.4704E-02
     285 0.5337E-02
     286 0.6114E-02
     287 0.5551E-02
     288 0.8189E-02
     289 0.7109E-02
     290 0.7480E-02
     291 0.7684E-02
     292 0.8352E-02
     293 0.7825E-02
     294 0.7291E-02
     295 0.1083E-01
     296 0.1060E-01
     297 0.8110E-02
     298 0.8218E-02
     299 0.8862E-02
     300 0.1120E-01
     301 0.5974E-02
     302 0.5795E-02
     303 0.7860E-02
     304 0.8639E-02
     305 0.2684E-01
     306 0.1098E-01
     307 0.1018E-01
     308 0.9930E-02
     309 0.1717E-01
     310 0.1651E-01
     311 0.1521E-01
     312 0.1655E-01
     313 0.1753E-01
     314 0.1537E-01
     315 0.1420E-01
     316 0.1325E-01
     317 0.4215E-01
     318 0.7669E-01
     319 0.6281E-01
     320 0.9657E-01
     321 0.1946E-01
     322 0.1816E-01
     323 0.2197E-01
     324 0.1431E-01
     325 0.1482E-01
     326 0.1900E-01
     327 0.1674E-01
     328 0.1966E-01
     329 0.2381E-01
     330 0.1319E-01
     331 0.1278E-01
     332 0.1395E-01
     333 0.1485E-01
     334 0.1661E-01
     335 0.1544E-01
     336 0.1367E-01
     337 0.1364E-01
     338 0.1346E-01
     339 0.1347E-01
     340 0.1386E-01
     341 0.1498E-01
     342 0.1461E-01
     343 0.1667E-01
     344 0.1465E-01
     345 0.4783E-01
     346 0.1287E-01
     347 0.2277E-01
     348 0.2000E-01
     349 0.1458E-01
     350 0.1395E-01
     351 0.1201E-01
     352 0.1341E+00
     353 0.2327E+00
     354 0.2317E+00
     355 0.2474E+00
     356 0.1121E+00
     357 0.1624E-01
     358 0.1249E+00
     359 0.1326E+00
     360 0.9053E-01
     361 0.8786E-01
     362 0.1047E+00
     363 0.2959E+00
     364 0.2717E+00
     365 0.2493E+00
     366 0.2466E+00
     367 0.1969E+00
     368 0.2490E+00
     369 0.2536E+00
     370 0.1905E+00
     371 0.2532E-01
     372 0.2084E-01
     373 0.2201E-01
     374 0.2176E-01
     375 0.1680E-01
     376 0.1644E-01
     377 0.3325E-01
     378 0.3072E-01
     379 0.3882E-01
     380 0.5557E-01
     381 0.3698E-01
     382 0.4015E-01
     383 0.4974E-01
     384 0.6070E-01
     385 0.9812E-01
     386 0.3027E-01
     387 0.2479E-01
     388 0.2297E-01
     389 0.2887E-01
     390 0.2445E-01
     391 0.7511E-01
     392 0.1023E-01
     393 0.1013E-01
     394 0.8806E-02
     395 0.1031E-01
     396 0.9920E-02
     397 0.1056E-01
     398 0.4038E-01
     399 0.2164E-01
     400 0.1313E-01
     401 0.3164E-01
     402 0.3235E-01
     403 0.2486E-01
     404 0.1233E-01
     405 0.1080E-01
     406 0.6521E-02
     407 0.5569E-02
     408 0.5942E-02
     409 0.6368E-02
     410 0.7269E-02
     411 0.8320E-02
     412 0.6236E-02
     413 0.6797E-02
     414 0.6780E-02
     415 0.7098E-02
     416 0.6935E-02
     417 0.4907E-02
     418 0.4779E-02
     419 0.4733E-02
     420 0.4572E-02
     421 0.4480E-02
     422 0.4863E-02
     423 0.4883E-02
     424 0.4828E-02
     425 0.3896E-02
     426 0.5166E-02
     427 0.4236E-02
     428 0.4280E-02
     429 0.4224E-02
     430 0.4300E-02
     431 0.4686E-02
     432 0.7447E-02
     433 0.1119E-01
     434 0.4808E-01
     435 0.1214E-01
     436 0.8735E-02
     437 0.5577E-02
     438 0.4236E-02
     439 0.4038E-02
     440 0.3991E-02
     441 0.3963E-02
     442 0.3952E-02
     443 0.3951E-02
     444 0.3894E-02
     445 0.3867E-02
     446 0.3824E-02
     447 0.3944E-02
     448 0.4028E-02
     449 0.4062E-02
     450 0.4061E-02
     451 0.4163E-02
     452 0.4429E-02
     453 0.4335E-02
     454 0.6544E-02
     455 0.4981E-02
     456 0.6456E-02
     457 0.4239E-02
     458 0.3960E-02
     459 0.3951E-02
     460 0.4163E-02
     461 0.3979E-02
     462 0.5410E-02
     463 0.3891E-02
     464 0.4085E-02
     465 0.4157E-02
     466 0.4489E-02
     467 0.4114E-02
     468 0.3996E-02
     469 0.3996E-02
     470 0.3922E-02
     471 0.4627E-02
     472 0.4990E-02
     473 0.4870E-02
     474 0.4521E-02
     475 0.5006E-02
     476 0.5405E-02
     477 0.4289E-02
     478 0.5082E-02
     479 0.4953E-02
     480 0.4629E-02
     481 0.4931E-02
     482 0.4428E-02
     483 0.4079E-02
     484 0.4062E-02
     485 0.1319E-01
     486 0.1255E-01
     487 0.7521E-02
     488 0.6751E-02
     489 0.6749E-02
     490 0.6459E-02
     491 0.7241E-02
     492 0.8613E-02
     493 0.1174E-01
     494 0.6320E-02
     495 0.6845E-02
     496 0.4441E-02
     497 0.5673E-02
     498 0.5298E-02
     499 0.5762E-02
     500 0.5381E-02
     501 0.5381E-02
NUMERICAL WARNING:: IterSolve: Failed convergence tolerances.
ComputeChange: NS (ITER=4) (NRM,RELC): ( 0.35131713E-01 0.19313668E-02 ) :: helmholtz equation
HelmholtzSolve: iter:    4 Assembly: (s)   36.60  204.05
HelmholtzSolve: iter:    4 Solve:    (s)  133.06  588.91
HelmholtzSolve: 
HelmholtzSolve: -------------------------------------
HelmholtzSolve:  Helmholtz iteration           5
HelmholtzSolve:  Frequency (Hz):    53.972600000000000
HelmholtzSolve: -------------------------------------
HelmholtzSolve: 
HelmholtzSolve: Starting Assembly
HelmholtzSolve: Assembly:
: .................... 53%
: .................Assembly done
DefUtils::DefaultDirichletBCs: Setting Dirichlet boundary conditions
DefUtils::DefaultDirichletBCs: Dirichlet boundary conditions set
       1 0.1228E-01
       2 0.3872E-01
       3 0.9549E-01
       4 0.9009E-01
       5 0.3529E+00
       6 0.2955E+00
       7 0.7824E-01
       8 0.1616E+00
       9 0.8550E-01
      10 0.5917E-01
      11 0.3446E-01
      12 0.4011E-01
      13 0.4394E-01
      14 0.4572E-01
      15 0.1746E+00
      16 0.3420E-01
      17 0.1261E-01
      18 0.6274E-02
      19 0.7482E-02
      20 0.4886E-02
      21 0.4227E-02
      22 0.4128E-02
      23 0.4011E-02
      24 0.3784E-02
      25 0.3754E-02
      26 0.3665E-02
      27 0.3672E-02
      28 0.3755E-02
      29 0.4433E-02
      30 0.4963E-02
      31 0.4662E-02
      32 0.4768E-02
      33 0.4718E-02
      34 0.4836E-02
      35 0.6243E-02
      36 0.6279E-02
      37 0.5237E-02
      38 0.5216E-02
      39 0.5154E-02
      40 0.5653E-02
      41 0.5300E-02
      42 0.4805E-02
      43 0.4976E-02
      44 0.4631E-02
      45 0.4601E-02
      46 0.4507E-02
      47 0.4657E-02
      48 0.4745E-02
      49 0.4998E-02
      50 0.4749E-02
      51 0.4260E-02
      52 0.5646E-02
      53 0.4396E-02
      54 0.5021E-02
      55 0.4941E-02
      56 0.4237E-02
      57 0.4091E-02
      58 0.3889E-02
      59 0.4002E-02
      60 0.3918E-02
      61 0.3844E-02
      62 0.3796E-02
      63 0.3740E-02
      64 0.4247E-02
      65 0.3722E-02
      66 0.3640E-02
      67 0.3693E-02
      68 0.3656E-02
      69 0.3674E-02
      70 0.3575E-02
      71 0.3581E-02
      72 0.3675E-02
      73 0.3679E-02
      74 0.3818E-02
      75 0.2889E-02
      76 0.3310E-02
      77 0.3935E-02
      78 0.4342E-02
      79 0.5237E-02
      80 0.4186E-02
      81 0.1048E-01
      82 0.4576E-02
      83 0.3681E-02
      84 0.3779E-02
      85 0.5221E-02
      86 0.4537E-02
      87 0.6469E-02
      88 0.5856E-02
      89 0.7639E-02
      90 0.1136E-01
      91 0.6020E-02
      92 0.5626E-02
      93 0.5070E-02
      94 0.2037E-01
      95 0.7612E-02
      96 0.7009E-02
      97 0.7950E-02
      98 0.1852E-01
      99 0.2209E-01
     100 0.2855E-01
     101 0.1714E-01
     102 0.1501E-01
     103 0.1275E-01
     104 0.1452E-01
     105 0.1351E-01
     106 0.1347E-01
     107 0.1683E-01
     108 0.4810E-02
     109 0.6158E-02
     110 0.6403E-02
     111 0.4067E-02
     112 0.3806E-02
     113 0.3726E-02
     114 0.3710E-02
     115 0.3730E-02
     116 0.3960E-02
     117 0.3239E-02
     118 0.3251E-02
     119 0.4726E-02
     120 0.3721E-02
     121 0.3154E-02
     122 0.3208E-02
     123 0.2933E-02
     124 0.3183E-02
     125 0.3538E-02
     126 0.4455E-02
     127 0.3334E-02
     128 0.3226E-02
     129 0.3105E-02
     130 0.4378E-02
     131 0.3031E-02
     132 0.3011E-02
     133 0.2979E-02
     134 0.4190E-02
     135 0.3940E-02
     136 0.7306E-02
     137 0.3537E-02
     138 0.3108E-02
     139 0.2872E-02
     140 0.2639E-02
     141 0.2644E-02
     142 0.2641E-02
     143 0.2842E-02
     144 0.2837E-02
     145 0.2778E-02
     146 0.2715E-02
     147 0.2713E-02
     148 0.2687E-02
     149 0.2654E-02
     150 0.2646E-02
     151 0.2637E-02
     152 0.2656E-02
     153 0.2733E-02
     154 0.2693E-02
     155 0.2850E-02
     156 0.3013E-02
     157 0.2779E-02
     158 0.2811E-02
     159 0.2962E-02
     160 0.2909E-02
     161 0.2905E-02
     162 0.2903E-02
     163 0.2910E-02
     164 0.2881E-02
     165 0.2893E-02
     166 0.4265E-02
     167 0.3991E-02
     168 0.3752E-02
     169 0.3531E-02
     170 0.3495E-02
     171 0.4468E-02
     172 0.3476E-02
     173 0.3604E-02
     174 0.3669E-02
     175 0.3610E-02
     176 0.3652E-02
     177 0.3712E-02
     178 0.3705E-02
     179 0.4137E-02
     180 0.3809E-02
     181 0.3939E-02
     182 0.4026E-02
     183 0.3863E-02
     184 0.4271E-02
     185 0.4258E-02
     186 0.3485E-02
     187 0.3694E-02
     188 0.7017E-02
     189 0.3908E-02
     190 0.4390E-02
     191 0.5972E-02
     192 0.4405E-02
     193 0.3273E-02
     194 0.2925E-02
     195 0.7039E-02
     196 0.4437E-02
     197 0.4587E-02
     198 0.4698E-02
     199 0.4650E-02
     200 0.4586E-02
     201 0.4612E-02
     202 0.4862E-02
     203 0.2162E-01
     204 0.1241E-01
     205 0.1031E-01
     206 0.1602E-01
     207 0.1187E-01
     208 0.9820E-02
     209 0.7648E-02
     210 0.5843E-02
     211 0.5235E-02
     212 0.5329E-02
     213 0.6084E-02
     214 0.5530E-02
     215 0.5559E-02
     216 0.5553E-02
     217 0.5619E-02
     218 0.5581E-02
     219 0.5636E-02
     220 0.5881E-02
     221 0.5868E-02
     222 0.5869E-02
     223 0.5649E-02
     224 0.5610E-02
     225 0.5479E-02
     226 0.5471E-02
     227 0.5534E-02
     228 0.1390E-01
     229 0.1128E-01
     230 0.6377E-02
     231 0.9528E-02
     232 0.6679E-02
     233 0.7755E-02
     234 0.7658E-02
     235 0.6615E-02
     236 0.6827E-02
     237 0.7301E-02
     238 0.5892E-02
     239 0.5886E-02
     240 0.7228E-02
     241 0.6663E-02
     242 0.7324E-02
     243 0.3032E-01
     244 0.4009E-01
     245 0.2105E-01
     246 0.2097E-01
     247 0.2102E-01
     248 0.2030E-01
     249 0.1890E-01
     250 0.1767E-01
     251 0.1735E-01
     252 0.1580E-01
     253 0.1641E-01
     254 0.1710E-01
     255 0.1648E-01
     256 0.1700E-01
     257 0.2020E-01
     258 0.2333E-01
     259 0.1740E-01
     260 0.1817E-01
     261 0.1830E-01
     262 0.1767E-01
     263 0.1824E-01
     264 0.1739E-01
     265 0.1737E-01
     266 0.1725E-01
     267 0.1767E-01
     268 0.1754E-01
     269 0.2118E-01
     270 0.2101E-01
     271 0.2012E-01
     272 0.1983E-01
     273 0.2059E-01
     274 0.2011E-01
     275 0.2439E-01
     276 0.2278E-01
     277 0.2054E-01
     278 0.3035E-01
     279 0.2479E-01
     280 0.2405E-01
     281 0.3421E-01
     282 0.2426E-01
     283 0.2668E-01
     284 0.3248E-01
     285 0.3129E-01
     286 0.2926E-01
     287 0.2611E-01
     288 0.2558E-01
     289 0.2643E-01
     290 0.2504E-01
     291 0.2777E-01
     292 0.2727E-01
     293 0.2716E-01
     294 0.3393E-01
     295 0.3163E-01
     296 0.1526E-01
     297 0.1757E-01
     298 0.1755E-01
     299 0.1451E-01
     300 0.1592E-01
     301 0.1489E-01
     302 0.1488E-01
     303 0.1535E-01
     304 0.1154E-01
     305 0.1148E-01
     306 0.1011E-01
     307 0.1022E-01
     308 0.9806E-02
     309 0.9623E-02
     310 0.9965E-02
     311 0.9990E-02
     312 0.9975E-02
     313 0.9613E-02
     314 0.9558E-02
     315 0.9271E-02
     316 0.1028E-01
     317 0.9943E-02
     318 0.1004E-01
     319 0.1012E-01
     320 0.9569E-02
     321 0.9511E-02
     322 0.9193E-02
     323 0.9704E-02
     324 0.9682E-02
     325 0.1081E-01
     326 0.9676E-02
     327 0.1078E-01
     328 0.1118E-01
     329 0.1049E-01
     330 0.1062E-01
     331 0.1519E-01
     332 0.1067E-01
     333 0.1192E-01
     334 0.1168E-01
     335 0.1028E-01
     336 0.1057E-01
     337 0.1039E-01
     338 0.1269E-01
     339 0.1464E-01
     340 0.1404E-01
     341 0.1309E-01
     342 0.1328E-01
     343 0.1319E-01
     344 0.1117E-01
     345 0.1009E-01
     346 0.1020E-01
     347 0.1002E-01
     348 0.1094E-01
     349 0.1054E-01
     350 0.1160E-01
     351 0.1197E-01
     352 0.1310E-01
     353 0.1212E-01
     354 0.1122E-01
     355 0.1039E-01
     356 0.1383E-01
     357 0.1018E-01
     358 0.1045E-01
     359 0.1229E-01
     360 0.1187E-01
     361 0.1179E-01
     362 0.8878E-02
     363 0.9611E-02
     364 0.9740E-02
     365 0.1270E-01
     366 0.4150E-01
     367 0.2108E-01
     368 0.2188E-01
     369 0.2197E-01
     370 0.2119E-01
     371 0.2038E-01
     372 0.1957E-01
     373 0.2225E-01
     374 0.2168E-01
     375 0.2189E-01
     376 0.2346E-01
     377 0.2424E-01
     378 0.3823E-01
     379 0.2914E-01
     380 0.2306E-01
     381 0.1715E-01
     382 0.1734E-01
     383 0.1697E-01
     384 0.1642E-01
     385 0.1584E-01
     386 0.1553E-01
     387 0.1524E-01
     388 0.1501E-01
     389 0.1798E-01
     390 0.1506E-01
     391 0.1345E-01
     392 0.1314E-01
     393 0.1249E-01
     394 0.1235E-01
     395 0.1201E-01
     396 0.1193E-01
     397 0.1066E-01
     398 0.9806E-02
     399 0.9761E-02
     400 0.9766E-02
     401 0.1046E-01
     402 0.1176E-01
     403 0.1149E-01
     404 0.1108E-01
     405 0.1178E-01
     406 0.1827E-01
     407 0.1082E-01
     408 0.1029E-01
     409 0.1111E-01
     410 0.1040E-01
     411 0.1037E-01
     412 0.1030E-01
     413 0.1045E-01
     414 0.1112E-01
     415 0.1118E-01
     416 0.9803E-02
     417 0.9590E-02
     418 0.2090E-01
     419 0.1965E-01
     420 0.1216E-01
     421 0.1376E-01
     422 0.1643E-01
     423 0.1623E-01
     424 0.1802E-01
     425 0.1648E-01
     426 0.4823E-01
     427 0.5043E-01
     428 0.1816E-01
     429 0.1944E-01
     430 0.2135E-01
     431 0.1718E-01
     432 0.1718E-01
     433 0.1942E-01
     434 0.2109E-01
     435 0.2097E-01
     436 0.1991E-01
     437 0.1972E-01
     438 0.1947E-01
     439 0.2070E-01
     440 0.9777E-01
     441 0.1841E-01
     442 0.3737E-01
     443 0.2315E-01
     444 0.2297E-01
     445 0.2026E-01
     446 0.1939E-01
     447 0.2419E-01
     448 0.2591E-01
     449 0.2171E-01
     450 0.2165E-01
     451 0.2167E-01
     452 0.2338E-01
     453 0.2210E-01
     454 0.2615E-01
     455 0.2305E-01
     456 0.2230E-01
     457 0.2061E-01
     458 0.2015E-01
     459 0.3058E-01
     460 0.2955E-01
     461 0.3498E-01
     462 0.2380E-01
     463 0.1971E-01
     464 0.1947E-01
     465 0.2701E-01
     466 0.3003E-01
     467 0.2195E-01
     468 0.1887E-01
     469 0.2406E-01
     470 0.1767E-01
     471 0.1900E-01
     472 0.1960E-01
     473 0.5608E-01
     474 0.2801E+00
     475 0.6706E-01
     476 0.4393E-01
     477 0.4527E-01
     478 0.3989E-01
     479 0.6234E-01
     480 0.7678E-01
     481 0.2783E-01
     482 0.3680E-01
     483 0.6351E-01
     484 0.1093E+00
     485 0.2787E+00
     486 0.6071E-01
     487 0.2406E-01
     488 0.2619E-01
     489 0.3259E-01
     490 0.3897E-01
     491 0.4930E-01
     492 0.2557E-01
     493 0.1987E-01
     494 0.1910E-01
     495 0.1850E-01
     496 0.1972E-01
     497 0.3002E-01
     498 0.3212E-01
     499 0.3849E-01
     500 0.4773E-01
     501 0.4773E-01
NUMERICAL WARNING:: IterSolve: Failed convergence tolerances.
ComputeChange: NS (ITER=5) (NRM,RELC): ( 0.41914191E-01 0.17606329     ) :: helmholtz equation
HelmholtzSolve: iter:    5 Assembly: (s)   37.83  241.88
HelmholtzSolve: iter:    5 Solve:    (s)  156.48  745.38
HelmholtzSolve: 
HelmholtzSolve: -------------------------------------
HelmholtzSolve:  Helmholtz iteration           6
HelmholtzSolve:  Frequency (Hz):    53.972600000000000
HelmholtzSolve: -------------------------------------
HelmholtzSolve: 
HelmholtzSolve: Starting Assembly
HelmholtzSolve: Assembly:
: .................... 59%
: ..............Assembly done
DefUtils::DefaultDirichletBCs: Setting Dirichlet boundary conditions
DefUtils::DefaultDirichletBCs: Dirichlet boundary conditions set
       1 0.1391E+00
       2 0.8509E-01
       3 0.4630E-01
       4 0.4611E-01
       5 0.4711E-01
       6 0.7010E-01
       7 0.6318E-01
       8 0.7008E-01
       9 0.5885E-01
      10 0.5554E-01
      11 0.5961E-01
      12 0.5824E-01
      13 0.1062E+00
      14 0.8971E-01
      15 0.1743E+00
      16 0.1325E+00
      17 0.1695E+00
      18 0.1229E+00
      19 0.1137E+00
      20 0.1126E+00
      21 0.1525E+00
      22 0.1701E+00
      23 0.1546E+00
      24 0.1425E+00
      25 0.1778E+00
      26 0.1373E+00
      27 0.1465E+00
      28 0.1686E+00
      29 0.1308E+00
      30 0.1040E+00
      31 0.1685E+00
      32 0.1293E+00
      33 0.1556E+00
      34 0.1493E+00
      35 0.1367E+00
      36 0.1387E+00
      37 0.1727E+00
      38 0.1297E+00
      39 0.1284E+00
      40 0.1172E+00
      41 0.1061E+00
      42 0.1040E+00
      43 0.1013E+00
      44 0.9831E-01
      45 0.1096E+00
      46 0.8614E-01
      47 0.6614E-01
      48 0.5396E-01
      49 0.5434E-01
      50 0.5526E-01
      51 0.6224E-01
      52 0.5170E-01
      53 0.5056E-01
      54 0.1190E+00
      55 0.4242E+00
      56 0.6604E-01
      57 0.6095E-01
      58 0.6310E-01
      59 0.6139E-01
      60 0.7245E-01
      61 0.6746E-01
      62 0.7928E-01
      63 0.6376E-01
      64 0.5955E-01
      65 0.5985E-01
      66 0.9181E-01
      67 0.1238E+00
      68 0.7209E-01
      69 0.5839E-01
      70 0.1518E+00
      71 0.1856E+00
      72 0.8770E-01
      73 0.4157E-01
      74 0.3543E-01
      75 0.3715E-01
      76 0.3065E-01
      77 0.2838E-01
      78 0.2699E-01
      79 0.2729E-01
      80 0.2951E-01
      81 0.2865E-01
      82 0.2914E-01
      83 0.2422E-01
      84 0.2266E-01
      85 0.2343E-01
      86 0.2283E-01
      87 0.2209E-01
      88 0.2255E-01
      89 0.2250E-01
      90 0.2220E-01
      91 0.2223E-01
      92 0.2242E-01
      93 0.2625E-01
      94 0.2253E-01
      95 0.2190E-01
      96 0.7382E-01
      97 0.2287E-01
      98 0.2182E-01
      99 0.2976E-01
     100 0.2648E-01
     101 0.2636E-01
     102 0.2928E-01
     103 0.2612E-01
     104 0.2642E-01
     105 0.2644E-01
     106 0.2638E-01
     107 0.2707E-01
     108 0.2712E-01
     109 0.1598E+00
     110 0.1528E+00
     111 0.1521E+00
     112 0.3665E-01
     113 0.4092E-01
     114 0.3734E-01
     115 0.4009E-01
     116 0.3893E-01
     117 0.3444E-01
     118 0.5621E-01
     119 0.3366E-01
     120 0.3367E-01
     121 0.4416E-01
     122 0.4116E-01
     123 0.3295E-01
     124 0.3365E-01
     125 0.3884E-01
     126 0.4244E-01
     127 0.3779E-01
     128 0.3835E-01
     129 0.3422E-01
     130 0.3414E-01
     131 0.2895E-01
     132 0.2443E-01
     133 0.2614E-01
     134 0.2395E-01
     135 0.2399E-01
     136 0.2403E-01
     137 0.2263E-01
     138 0.2221E-01
     139 0.2253E-01
     140 0.2219E-01
     141 0.2182E-01
     142 0.2161E-01
     143 0.2184E-01
     144 0.2195E-01
     145 0.2405E-01
     146 0.1930E-01
     147 0.1627E-01
     148 0.1592E-01
     149 0.1175E-01
     150 0.1056E-01
     151 0.8101E-02
     152 0.7582E-02
     153 0.7800E-02
     154 0.7949E-02
     155 0.1092E-01
     156 0.7128E-02
     157 0.8176E-02
     158 0.1460E-01
     159 0.1305E-01
     160 0.6184E-02
     161 0.5702E-02
     162 0.5853E-02
     163 0.5758E-02
     164 0.5664E-02
     165 0.5566E-02
     166 0.5641E-02
     167 0.5535E-02
     168 0.5407E-02
     169 0.6076E-02
     170 0.6311E-02
     171 0.7001E-02
     172 0.5506E-02
     173 0.5401E-02
     174 0.5429E-02
     175 0.5732E-02
     176 0.5324E-02
     177 0.5316E-02
     178 0.5562E-02
     179 0.1476E-01
     180 0.1399E-01
     181 0.1498E-01
     182 0.8653E-02
     183 0.6548E-02
     184 0.5992E-02
     185 0.5908E-02
     186 0.6183E-02
     187 0.5905E-02
     188 0.5868E-02
     189 0.6301E-02
     190 0.5707E-02
     191 0.5687E-02
     192 0.6950E-02
     193 0.7010E-02
     194 0.6842E-02
     195 0.5948E-02
     196 0.5661E-02
     197 0.5589E-02
     198 0.5440E-02
     199 0.5189E-02
     200 0.5127E-02
     201 0.5280E-02
     202 0.5231E-02
     203 0.5430E-02
     204 0.5142E-02
     205 0.5657E-02
     206 0.6853E-02
     207 0.5765E-02
     208 0.4916E-02
     209 0.4783E-02
     210 0.4775E-02
     211 0.5019E-02
     212 0.5476E-02
     213 0.4734E-02
     214 0.4771E-02
     215 0.4561E-02
     216 0.4733E-02
     217 0.4691E-02
     218 0.5287E-02
     219 0.4723E-02
     220 0.4755E-02
     221 0.4734E-02
     222 0.4662E-02
     223 0.4650E-02
     224 0.4638E-02
     225 0.4636E-02
     226 0.4736E-02
     227 0.4752E-02
     228 0.4731E-02
     229 0.1059E-01
     230 0.1067E-01
     231 0.5720E-02
     232 0.8871E-02
     233 0.5287E-02
     234 0.6617E-02
     235 0.5193E-02
     236 0.5225E-02
     237 0.4805E-02
     238 0.4495E-02
     239 0.4463E-02
     240 0.4596E-02
     241 0.4952E-02
     242 0.4557E-02
     243 0.4451E-02
     244 0.4477E-02
     245 0.4524E-02
     246 0.4831E-02
     247 0.4495E-02
     248 0.4458E-02
     249 0.4579E-02
     250 0.4523E-02
     251 0.4668E-02
     252 0.4613E-02
     253 0.4856E-02
     254 0.4430E-02
     255 0.4420E-02
     256 0.4402E-02
     257 0.4459E-02
     258 0.4405E-02
     259 0.4446E-02
     260 0.4427E-02
     261 0.4681E-02
     262 0.4512E-02
     263 0.4441E-02
     264 0.4522E-02
     265 0.5049E-02
     266 0.5062E-02
     267 0.4791E-02
     268 0.4740E-02
     269 0.4764E-02
     270 0.5186E-02
     271 0.5470E-02
     272 0.5365E-02
     273 0.5247E-02
     274 0.5884E-02
     275 0.5545E-02
     276 0.5585E-02
     277 0.6102E-02
     278 0.6447E-02
     279 0.7585E-02
     280 0.7410E-02
     281 0.7374E-02
     282 0.1115E-01
     283 0.9656E-02
     284 0.1103E-01
     285 0.1152E-01
     286 0.9972E-02
     287 0.9416E-02
     288 0.8326E-02
     289 0.9032E-02
     290 0.8916E-02
     291 0.9745E-02
     292 0.9211E-02
     293 0.9948E-02
     294 0.9289E-02
     295 0.9395E-02
     296 0.9056E-02
     297 0.1141E-01
     298 0.1125E-01
     299 0.1149E-01
     300 0.1100E-01
     301 0.1095E-01
     302 0.1154E-01
     303 0.1170E-01
     304 0.1286E-01
     305 0.1245E-01
     306 0.1091E-01
     307 0.1077E-01
     308 0.1417E-01
     309 0.1411E-01
     310 0.1400E-01
     311 0.2214E-01
     312 0.8002E-01
     313 0.7654E-02
     314 0.5027E-02
     315 0.4829E-02
     316 0.5705E-02
     317 0.1188E-01
     318 0.5669E-02
     319 0.7772E-02
     320 0.6690E-02
     321 0.5490E-02
     322 0.5412E-02
     323 0.5312E-02
     324 0.5337E-02
     325 0.5493E-02
     326 0.5402E-02
     327 0.5356E-02
     328 0.4872E-02
     329 0.4940E-02
     330 0.5019E-02
     331 0.5807E-02
     332 0.6164E-02
     333 0.6262E-02
     334 0.5891E-02
     335 0.8595E-02
     336 0.7904E-02
     337 0.6861E-02
     338 0.6575E-02
     339 0.6825E-02
     340 0.6589E-02
     341 0.7554E-02
     342 0.6652E-02
     343 0.6327E-02
     344 0.6273E-02
     345 0.8299E-02
     346 0.5821E-02
     347 0.6447E-02
     348 0.6478E-02
     349 0.8894E-02
     350 0.7582E-02
     351 0.7737E-02
     352 0.7672E-02
     353 0.7981E-02
     354 0.1248E-01
     355 0.9694E-02
     356 0.8031E-02
     357 0.7724E-02
     358 0.7728E-02
     359 0.7761E-02
     360 0.7757E-02
     361 0.7689E-02
     362 0.7926E-02
     363 0.7685E-02
     364 0.7677E-02
     365 0.7708E-02
     366 0.7701E-02
     367 0.8030E-02
     368 0.8232E-02
     369 0.7833E-02
     370 0.8011E-02
     371 0.7707E-02
     372 0.7652E-02
     373 0.7618E-02
     374 0.7576E-02
     375 0.7494E-02
     376 0.7556E-02
     377 0.7556E-02
     378 0.8226E-02
     379 0.1010E-01
     380 0.7471E-02
     381 0.7414E-02
     382 0.7738E-02
     383 0.7733E-02
     384 0.7895E-02
     385 0.7683E-02
     386 0.7470E-02
     387 0.7441E-02
     388 0.7423E-02
     389 0.7501E-02
     390 0.7305E-02
     391 0.7495E-02
     392 0.7354E-02
     393 0.7438E-02
     394 0.7363E-02
     395 0.7352E-02
     396 0.8533E-02
     397 0.7745E-02
     398 0.8034E-02
     399 0.8452E-02
     400 0.7261E-02
     401 0.9894E-02
     402 0.7714E-02
     403 0.9201E-02
     404 0.8492E-02
     405 0.8269E-02
     406 0.7890E-02
     407 0.7894E-02
     408 0.7722E-02
     409 0.7781E-02
     410 0.8227E-02
     411 0.7209E-02
     412 0.7220E-02
     413 0.7289E-02
     414 0.7323E-02
     415 0.8420E-02
     416 0.7260E-02
     417 0.7281E-02
     418 0.7294E-02
     419 0.7271E-02
     420 0.7267E-02
     421 0.7533E-02
     422 0.7314E-02
     423 0.7268E-02
     424 0.7302E-02
     425 0.7259E-02
     426 0.7248E-02
     427 0.7215E-02
     428 0.7196E-02
     429 0.7239E-02
     430 0.7213E-02
     431 0.7173E-02
     432 0.7174E-02
     433 0.7155E-02
     434 0.7359E-02
     435 0.7163E-02
     436 0.7404E-02
     437 0.7228E-02
     438 0.7096E-02
     439 0.8394E-02
     440 0.7351E-02
     441 0.7081E-02
     442 0.7318E-02
     443 0.7400E-02
     444 0.7170E-02
     445 0.7115E-02
     446 0.7265E-02
     447 0.7043E-02
     448 0.7249E-02
     449 0.7088E-02
     450 0.7072E-02
     451 0.7284E-02
     452 0.7270E-02
     453 0.7164E-02
     454 0.7122E-02
     455 0.7132E-02
     456 0.1374E-01
     457 0.7045E-02
     458 0.7119E-02
     459 0.7002E-02
     460 0.7031E-02
     461 0.7439E-02
     462 0.6968E-02
     463 0.6983E-02
     464 0.7071E-02
     465 0.6971E-02
     466 0.7067E-02
     467 0.6972E-02
     468 0.6983E-02
     469 0.1171E-01
     470 0.1044E-01
     471 0.7083E-02
     472 0.6381E-02
     473 0.6304E-02
     474 0.6529E-02
     475 0.6769E-02
     476 0.6441E-02
     477 0.7108E-02
     478 0.1014E-01
     479 0.3295E-01
     480 0.6206E-02
     481 0.6195E-02
     482 0.7722E-02
     483 0.6021E-02
     484 0.5975E-02
     485 0.5917E-02
     486 0.2146E-01
     487 0.1743E-01
     488 0.7603E-02
     489 0.6776E-02
     490 0.6480E-02
     491 0.6247E-02
     492 0.7192E-02
     493 0.7866E-02
     494 0.7759E-02
     495 0.7679E-02
     496 0.7745E-02
     497 0.6601E-02
     498 0.7016E-02
     499 0.6391E-02
     500 0.5483E-02
     501 0.5483E-02
NUMERICAL WARNING:: IterSolve: Failed convergence tolerances.
ComputeChange: NS (ITER=6) (NRM,RELC): ( 0.38111456E-01 0.95037889E-01 ) :: helmholtz equation
HelmholtzSolve: iter:    6 Assembly: (s)   36.15  278.03
HelmholtzSolve: iter:    6 Solve:    (s)  178.47  923.85
HelmholtzSolve: 
HelmholtzSolve: -------------------------------------
HelmholtzSolve:  Helmholtz iteration           7
HelmholtzSolve:  Frequency (Hz):    53.972600000000000
HelmholtzSolve: -------------------------------------
HelmholtzSolve: 
HelmholtzSolve: Starting Assembly
HelmholtzSolve: Assembly:
: .................... 56%
: ................Assembly done
DefUtils::DefaultDirichletBCs: Setting Dirichlet boundary conditions
DefUtils::DefaultDirichletBCs: Dirichlet boundary conditions set
       1 0.1017E+00
       2 0.1031E+00
       3 0.5485E-01
       4 0.3068E-01
       5 0.7291E-02
       6 0.4938E-02
       7 0.4779E-02
       8 0.4718E-02
       9 0.1689E-01
      10 0.5792E-02
      11 0.1093E-01
      12 0.9071E-02
      13 0.8314E-02
      14 0.9368E-02
      15 0.8887E-02
      16 0.8863E-02
      17 0.8706E-02
      18 0.9608E-02
      19 0.8944E-02
      20 0.8425E-02
      21 0.1798E-01
      22 0.1135E-01
      23 0.1170E-01
      24 0.1799E-01
      25 0.1644E-01
      26 0.3532E-01
      27 0.3749E-01
      28 0.1462E-01
      29 0.8244E-01
      30 0.3646E-01
      31 0.2309E-01
      32 0.1651E-01
      33 0.1536E-01
      34 0.1291E-01
      35 0.1308E-01
      36 0.1201E-01
      37 0.1210E-01
      38 0.1257E-01
      39 0.1420E-01
      40 0.1139E-01
      41 0.1131E-01
      42 0.1130E-01
      43 0.1123E-01
      44 0.1308E-01
      45 0.1940E-01
      46 0.1675E-01
      47 0.1317E-01
      48 0.1537E-01
      49 0.1549E-01
      50 0.1505E-01
      51 0.1450E-01
      52 0.1599E-01
      53 0.1326E-01
      54 0.1305E-01
      55 0.1280E-01
      56 0.1519E-01
      57 0.3768E-01
      58 0.2520E-01
      59 0.2163E-01
      60 0.1304E-01
      61 0.1552E-01
      62 0.1440E-01
      63 0.1232E-01
      64 0.1854E-01
      65 0.1440E-01
      66 0.1234E-01
      67 0.1229E-01
      68 0.1162E-01
      69 0.1957E-01
      70 0.1880E-01
      71 0.1755E-01
      72 0.1840E-01
      73 0.1355E-01
      74 0.5329E-01
      75 0.2894E-01
      76 0.2841E-01
      77 0.2697E-01
      78 0.2694E-01
      79 0.2659E-01
      80 0.2951E-01
      81 0.2933E-01
      82 0.3009E-01
      83 0.8057E-01
      84 0.4054E-01
      85 0.3133E-01
      86 0.3066E-01
      87 0.3029E-01
      88 0.3024E-01
      89 0.2936E-01
      90 0.2912E-01
      91 0.2827E-01
      92 0.2819E-01
      93 0.2921E-01
      94 0.2741E-01
      95 0.3110E-01
      96 0.4771E-01
      97 0.3143E-01
      98 0.3074E-01
      99 0.3224E-01
     100 0.3372E-01
     101 0.7851E-01
     102 0.6897E-01
     103 0.5973E-01
     104 0.3667E-01
     105 0.3285E-01
     106 0.3218E-01
     107 0.3221E-01
     108 0.3207E-01
     109 0.3322E-01
     110 0.3271E-01
     111 0.3454E-01
     112 0.3798E-01
     113 0.5202E-01
     114 0.4123E-01
     115 0.3139E-01
     116 0.2889E-01
     117 0.2928E-01
     118 0.2779E-01
     119 0.2959E-01
     120 0.2956E-01
     121 0.3176E-01
     122 0.3179E-01
     123 0.3302E-01
     124 0.3263E-01
     125 0.3176E-01
     126 0.3103E-01
     127 0.3141E-01
     128 0.3194E-01
     129 0.4028E-01
     130 0.3093E-01
     131 0.3115E-01
     132 0.3198E-01
     133 0.3120E-01
     134 0.3126E-01
     135 0.3112E-01
     136 0.3154E-01
     137 0.3033E-01
     138 0.4262E-01
     139 0.3327E-01
     140 0.3466E-01
     141 0.3279E-01
     142 0.3344E-01
     143 0.3229E-01
     144 0.3234E-01
     145 0.3106E-01
     146 0.3072E-01
     147 0.3081E-01
     148 0.3029E-01
     149 0.3105E-01
     150 0.3190E-01
     151 0.3248E-01
     152 0.3424E-01
     153 0.3843E-01
     154 0.8838E-01
     155 0.1460E+00
     156 0.6151E-01
     157 0.5023E-01
     158 0.5127E-01
     159 0.3366E-01
     160 0.3980E-01
     161 0.2255E-01
     162 0.6333E-01
     163 0.1894E-01
     164 0.2158E-01
     165 0.2298E-01
     166 0.2163E-01
     167 0.2248E-01
     168 0.1924E-01
     169 0.2285E-01
     170 0.2522E-01
     171 0.3123E-01
     172 0.2768E-01
     173 0.2852E-01
     174 0.2828E-01
     175 0.9153E-01
     176 0.7425E-01
     177 0.7744E-01
     178 0.1055E+00
     179 0.1594E+00
     180 0.3839E-01
     181 0.3393E-01
     182 0.3703E-01
     183 0.4041E-01
     184 0.4181E-01
     185 0.2860E-01
     186 0.3445E-01
     187 0.3124E-01
     188 0.3133E-01
     189 0.3256E-01
     190 0.3323E-01
     191 0.3277E-01
     192 0.3397E-01
     193 0.3346E-01
     194 0.3518E-01
     195 0.3575E-01
     196 0.3460E-01
     197 0.3424E-01
     198 0.3123E-01
     199 0.3493E-01
     200 0.3408E-01
     201 0.4007E-01
     202 0.4182E-01
     203 0.6776E-01
     204 0.4904E-01
     205 0.6121E-01
     206 0.5227E-01
     207 0.7183E-01
     208 0.2707E+00
     209 0.2953E+00
     210 0.4232E-01
     211 0.8045E-01
     212 0.5797E-01
     213 0.4834E-01
     214 0.7817E-01
     215 0.7232E-01
     216 0.4379E-01
     217 0.3985E-01
     218 0.7898E-01
     219 0.7098E-01
     220 0.5542E-01
     221 0.5851E-01
     222 0.5549E-01
     223 0.5320E-01
     224 0.6094E-01
     225 0.5869E-01
     226 0.6284E-01
     227 0.6932E-01
     228 0.5832E-01
     229 0.5579E-01
     230 0.5418E-01
     231 0.5282E-01
     232 0.5275E-01
     233 0.5187E-01
     234 0.5331E-01
     235 0.5389E-01
     236 0.5422E-01
     237 0.6821E-01
     238 0.7322E-01
     239 0.5132E-01
     240 0.5098E-01
     241 0.7999E-01
     242 0.9361E-01
     243 0.5399E-01
     244 0.5380E-01
     245 0.5574E-01
     246 0.6833E-01
     247 0.6159E-01
     248 0.7010E-01
     249 0.5526E-01
     250 0.5374E-01
     251 0.5470E-01
     252 0.5482E-01
     253 0.5235E-01
     254 0.5206E-01
     255 0.4886E-01
     256 0.5628E-01
     257 0.5358E-01
     258 0.5373E-01
     259 0.4701E-01
     260 0.4714E-01
     261 0.5181E-01
     262 0.4811E-01
     263 0.4607E-01
     264 0.4720E-01
     265 0.4796E-01
     266 0.4975E-01
     267 0.4805E-01
     268 0.5474E-01
     269 0.6405E-01
     270 0.7307E-01
     271 0.9150E-01
     272 0.7869E-01
     273 0.7235E-01
     274 0.8285E-01
     275 0.7457E-01
     276 0.6847E-01
     277 0.3175E+00
     278 0.2142E+00
     279 0.2137E+00
     280 0.5750E+00
     281 0.1098E+01
     282 0.1104E+00
     283 0.9535E-01
     284 0.9601E-01
     285 0.9111E-01
     286 0.9156E-01
     287 0.9112E-01
     288 0.7278E-01
     289 0.5595E-01
     290 0.5596E-01
     291 0.4969E-01
     292 0.4984E-01
     293 0.1102E+00
     294 0.5104E-01
     295 0.4611E-01
     296 0.4875E-01
     297 0.4566E-01
     298 0.5515E-01
     299 0.4410E-01
     300 0.5112E-01
     301 0.5700E-01
     302 0.5723E-01
     303 0.4738E-01
     304 0.5159E-01
     305 0.7110E-01
     306 0.5687E-01
     307 0.5950E-01
     308 0.8556E-01
     309 0.5992E-01
     310 0.5981E-01
     311 0.6070E-01
     312 0.6846E-01
     313 0.6840E-01
     314 0.9350E-01
     315 0.6700E-01
     316 0.6903E-01
     317 0.9061E-01
     318 0.6684E-01
     319 0.6695E-01
     320 0.6365E-01
     321 0.1489E+00
     322 0.9136E-01
     323 0.1535E+00
     324 0.1017E+00
     325 0.9548E-01
     326 0.1434E+00
     327 0.1122E+00
     328 0.9576E-01
     329 0.9042E-01
     330 0.1444E+00
     331 0.2841E+00
     332 0.1416E+00
     333 0.9129E-01
     334 0.5563E-01
     335 0.4806E-01
     336 0.4757E-01
     337 0.5099E-01
     338 0.4918E-01
     339 0.4939E-01
     340 0.4965E-01
     341 0.4890E-01
     342 0.6496E-01
     343 0.5223E-01
     344 0.2027E+00
     345 0.6115E-01
     346 0.4993E-01
     347 0.5293E-01
     348 0.8430E+00
     349 0.4406E-01
     350 0.4243E-01
     351 0.3881E-01
     352 0.3562E-01
     353 0.4091E-01
     354 0.3130E-01
     355 0.3565E-01
     356 0.3247E-01
     357 0.2709E-01
     358 0.7976E-01
     359 0.2648E-01
     360 0.2246E-01
     361 0.2307E-01
     362 0.2295E-01
     363 0.2217E-01
     364 0.2256E-01
     365 0.2471E-01
     366 0.3673E-01
     367 0.3053E-01
     368 0.3109E-01
     369 0.2725E-01
     370 0.2676E-01
     371 0.2557E-01
     372 0.3136E-01
     373 0.4120E-01
     374 0.3354E-01
     375 0.3168E-01
     376 0.3232E-01
     377 0.3089E-01
     378 0.3120E-01
     379 0.1882E+00
     380 0.2756E-01
     381 0.2633E-01
     382 0.2505E-01
     383 0.2400E-01
     384 0.2839E-01
     385 0.2175E-01
     386 0.2519E-01
     387 0.2605E-01
     388 0.2509E-01
     389 0.2436E-01
     390 0.2446E-01
     391 0.2286E-01
     392 0.2277E-01
     393 0.2441E-01
     394 0.2330E-01
     395 0.2281E-01
     396 0.2353E-01
     397 0.2274E-01
     398 0.2223E-01
     399 0.2315E-01
     400 0.2261E-01
     401 0.2178E-01
     402 0.2153E-01
     403 0.2141E-01
     404 0.2093E-01
[...]
      96 0.2261E-05
      97 0.2165E-05
      98 0.1888E-05
      99 0.1892E-05
     100 0.1859E-05
     101 0.1886E-05
     102 0.3968E-05
     103 0.3971E-05
     104 0.3105E-05
     105 0.2975E-05
     106 0.3213E-05
     107 0.4198E-05
     108 0.2053E-05
     109 0.2128E-05
     110 0.2104E-05
     111 0.2335E-05
     112 0.2182E-05
     113 0.2195E-05
     114 0.2158E-05
     115 0.2165E-05
     116 0.2168E-05
     117 0.2117E-05
     118 0.2092E-05
     119 0.2202E-05
     120 0.2052E-05
     121 0.1751E-05
     122 0.2181E-05
     123 0.3490E-05
     124 0.1725E-05
     125 0.1700E-05
     126 0.1641E-05
     127 0.1626E-05
     128 0.1635E-05
     129 0.1575E-05
     130 0.2249E-05
     131 0.1586E-05
     132 0.1471E-05
     133 0.1363E-05
     134 0.3481E-05
     135 0.2033E-05
     136 0.1895E-05
     137 0.1692E-05
     138 0.1607E-05
     139 0.1636E-05
     140 0.1613E-05
     141 0.2032E-05
     142 0.1551E-05
     143 0.1698E-05
     144 0.1703E-05
     145 0.1348E-05
     146 0.1908E-05
     147 0.3854E-05
     148 0.1418E-05
     149 0.1328E-05
     150 0.1311E-05
     151 0.1239E-05
     152 0.1249E-05
     153 0.1207E-05
     154 0.1221E-05
     155 0.1216E-05
     156 0.1287E-05
     157 0.1345E-05
     158 0.1263E-05
     159 0.1349E-05
     160 0.1219E-05
     161 0.1253E-05
     162 0.1189E-05
     163 0.1261E-05
     164 0.1257E-05
     165 0.1349E-05
     166 0.1825E-05
     167 0.1461E-05
     168 0.1728E-05
     169 0.1676E-05
     170 0.1216E-05
     171 0.1369E-05
     172 0.1200E-05
     173 0.1277E-05
     174 0.1380E-05
     175 0.1363E-05
     176 0.1589E-05
     177 0.1533E-05
     178 0.1293E-05
     179 0.1426E-05
     180 0.1579E-05
     181 0.1556E-05
     182 0.1331E-05
     183 0.1201E-05
     184 0.1248E-05
     185 0.2156E-05
     186 0.1805E-05
     187 0.1499E-05
     188 0.1141E-05
     189 0.1143E-05
     190 0.1116E-05
     191 0.1221E-05
     192 0.1249E-05
     193 0.1200E-05
     194 0.1194E-05
     195 0.1725E-05
     196 0.1505E-05
     197 0.1425E-05
     198 0.1421E-05
     199 0.1439E-05
     200 0.1435E-05
     201 0.1446E-05
     202 0.1438E-05
     203 0.1459E-05
     204 0.1449E-05
     205 0.1776E-05
     206 0.1434E-05
     207 0.1442E-05
     208 0.1433E-05
     209 0.1420E-05
     210 0.1420E-05
     211 0.1436E-05
     212 0.1422E-05
     213 0.1423E-05
     214 0.1421E-05
     215 0.1414E-05
     216 0.2624E-05
     217 0.1690E-05
     218 0.1418E-05
     219 0.1432E-05
     220 0.1431E-05
     221 0.1428E-05
     222 0.1421E-05
     223 0.1417E-05
     224 0.1395E-05
     225 0.1388E-05
     226 0.1393E-05
     227 0.1388E-05
     228 0.1594E-05
     229 0.1321E-05
     230 0.1309E-05
     231 0.4047E-05
     232 0.3504E-05
     233 0.5456E-05
     234 0.2813E-05
     235 0.2363E-05
     236 0.2466E-05
     237 0.1918E-05
     238 0.1761E-05
     239 0.1716E-05
     240 0.1705E-05
     241 0.1653E-05
     242 0.1640E-05
     243 0.1481E-05
     244 0.2056E-05
     245 0.8441E-05
     246 0.7282E-05
     247 0.5197E-04
     248 0.4650E-04
     249 0.1179E-03
     250 0.1634E-04
     251 0.1689E-04
     252 0.1250E-04
     253 0.1096E-04
     254 0.8908E-05
     255 0.7417E-05
     256 0.6812E-05
     257 0.1010E-04
     258 0.1175E-04
     259 0.1018E-04
     260 0.7708E-05
     261 0.4218E-05
     262 0.3894E-05
     263 0.3525E-05
     264 0.2198E-04
     265 0.5060E-04
     266 0.3591E-04
     267 0.2264E-04
     268 0.1308E-04
     269 0.6392E-05
     270 0.5282E-05
     271 0.1055E-03
     272 0.9917E-04
     273 0.1618E-03
     274 0.4155E-04
     275 0.1688E-04
     276 0.1316E-04
     277 0.1010E-04
     278 0.1712E-04
     279 0.9149E-05
     280 0.8506E-05
     281 0.7357E-05
     282 0.5635E-05
     283 0.6137E-05
     284 0.1235E-04
     285 0.8210E-05
     286 0.6445E-05
     287 0.5070E-05
     288 0.9914E-05
     289 0.1891E-04
     290 0.3899E-05
     291 0.3631E-05
     292 0.3515E-05
     293 0.5005E-05
     294 0.1413E-04
     295 0.4754E-05
     296 0.4835E-05
     297 0.3472E-05
     298 0.3297E-05
     299 0.3282E-05
     300 0.9465E-05
     301 0.3205E-05
     302 0.1973E-05
     303 0.2005E-05
     304 0.1881E-05
     305 0.1787E-05
     306 0.1827E-05
     307 0.1678E-05
     308 0.1674E-05
     309 0.1697E-05
     310 0.1667E-05
     311 0.1941E-05
     312 0.2119E-05
     313 0.6882E-05
     314 0.3095E-05
     315 0.1860E-05
     316 0.1091E-05
     317 0.1445E-05
     318 0.1211E-05
     319 0.1212E-05
     320 0.1209E-05
     321 0.1367E-05
     322 0.1200E-05
     323 0.1202E-05
     324 0.1205E-05
     325 0.1224E-05
     326 0.1308E-05
     327 0.1374E-05
     328 0.1399E-05
     329 0.1514E-05
     330 0.1550E-05
     331 0.1350E-05
     332 0.1487E-05
     333 0.1398E-05
     334 0.1369E-05
     335 0.1337E-05
     336 0.1346E-05
     337 0.1299E-05
     338 0.1412E-05
     339 0.1345E-05
     340 0.1328E-05
     341 0.1356E-05
     342 0.1327E-05
     343 0.1333E-05
     344 0.1328E-05
     345 0.1332E-05
     346 0.1340E-05
     347 0.1355E-05
     348 0.1322E-05
     349 0.1316E-05
     350 0.1322E-05
     351 0.1303E-05
     352 0.1323E-05
     353 0.1291E-05
     354 0.1295E-05
     355 0.1293E-05
     356 0.1292E-05
     357 0.1269E-05
     358 0.1470E-05
     359 0.1275E-05
     360 0.1277E-05
     361 0.1277E-05
     362 0.1292E-05
     363 0.1277E-05
     364 0.1278E-05
     365 0.1376E-05
     366 0.1300E-05
     367 0.1297E-05
     368 0.1277E-05
     369 0.1499E-05
     370 0.1632E-05
     371 0.1929E-05
     372 0.1584E-05
     373 0.1298E-05
     374 0.1293E-05
     375 0.1296E-05
     376 0.1302E-05
     377 0.1291E-05
     378 0.1295E-05
     379 0.1292E-05
     380 0.1275E-05
     381 0.1294E-05
     382 0.1268E-05
     383 0.1283E-05
     384 0.1276E-05
     385 0.1438E-05
     386 0.1366E-05
     387 0.1561E-05
     388 0.1414E-05
     389 0.1531E-05
     390 0.1346E-05
     391 0.1339E-05
     392 0.1392E-05
     393 0.1297E-05
     394 0.1782E-05
     395 0.1557E-05
     396 0.1926E-05
     397 0.1565E-05
     398 0.1902E-05
     399 0.2242E-05
     400 0.1381E-05
     401 0.1435E-05
     402 0.1798E-05
     403 0.1358E-05
     404 0.1305E-05
     405 0.1338E-05
     406 0.1359E-05
     407 0.1406E-05
     408 0.1288E-05
     409 0.1292E-05
     410 0.1328E-05
     411 0.1323E-05
     412 0.1391E-05
     413 0.1296E-05
     414 0.1727E-05
     415 0.4105E-05
     416 0.1393E-05
     417 0.9108E-06
     418 0.1393E-05
     419 0.1478E-05
     420 0.1452E-05
     421 0.1559E-05
     422 0.1420E-05
     423 0.1537E-05
     424 0.1532E-05
     425 0.1526E-05
     426 0.1559E-05
     427 0.1519E-05
     428 0.1530E-05
     429 0.1540E-05
     430 0.1541E-05
     431 0.1535E-05
     432 0.1538E-05
     433 0.1556E-05
     434 0.1528E-05
     435 0.1532E-05
     436 0.1525E-05
     437 0.1580E-05
     438 0.1565E-05
     439 0.1519E-05
     440 0.1507E-05
     441 0.1511E-05
     442 0.1511E-05
     443 0.1503E-05
     444 0.1509E-05
     445 0.1516E-05
     446 0.1495E-05
     447 0.1514E-05
     448 0.1541E-05
     449 0.1516E-05
     450 0.1522E-05
     451 0.1505E-05
     452 0.1499E-05
     453 0.1509E-05
     454 0.1502E-05
     455 0.1536E-05
     456 0.1515E-05
     457 0.1514E-05
     458 0.1572E-05
     459 0.1513E-05
     460 0.1568E-05
     461 0.1530E-05
     462 0.1504E-05
     463 0.1903E-05
     464 0.1915E-05
     465 0.1856E-05
     466 0.1590E-05
     467 0.1657E-05
     468 0.1668E-05
     469 0.1510E-05
     470 0.1503E-05
     471 0.1500E-05
     472 0.1499E-05
     473 0.1494E-05
     474 0.1492E-05
     475 0.1632E-05
     476 0.1500E-05
     477 0.1501E-05
     478 0.1527E-05
     479 0.1609E-05
     480 0.1491E-05
     481 0.1482E-05
     482 0.1486E-05
     483 0.1488E-05
     484 0.1482E-05
     485 0.1610E-05
     486 0.1512E-05
     487 0.1765E-05
     488 0.1477E-05
     489 0.1474E-05
     490 0.1476E-05
     491 0.1512E-05
     492 0.1507E-05
     493 0.1487E-05
     494 0.1590E-05
     495 0.1499E-05
     496 0.1486E-05
     497 0.1481E-05
     498 0.1476E-05
     499 0.1475E-05
     500 0.1497E-05
     501 0.1497E-05
NUMERICAL WARNING:: IterSolve: Failed convergence tolerances.
ComputeChange: NS (ITER=19) (NRM,RELC): ( 0.35628213E-01 0.75389623E-05 ) :: helmholtz equation
HelmholtzSolve: iter:   19 Assembly: (s)   33.06  714.36
HelmholtzSolve: iter:   19 Solve:    (s)   68.62 2150.92
HelmholtzSolve: 
HelmholtzSolve: -------------------------------------
HelmholtzSolve:  Helmholtz iteration          20
HelmholtzSolve:  Frequency (Hz):    53.972600000000000
HelmholtzSolve: -------------------------------------
HelmholtzSolve: 
HelmholtzSolve: Starting Assembly
HelmholtzSolve: Assembly:
: .................... 64%
: ...........Assembly done
DefUtils::DefaultDirichletBCs: Setting Dirichlet boundary conditions
DefUtils::DefaultDirichletBCs: Dirichlet boundary conditions set
       1 0.6609E-04
       2 0.3244E-04
       3 0.1479E-04
       4 0.3655E-05
       5 0.2051E-05
       6 0.1925E-05
       7 0.1916E-05
       8 0.2503E-05
       9 0.1845E-05
      10 0.1612E-05
      11 0.1863E-05
      12 0.4828E-05
      13 0.2698E-05
      14 0.3006E-05
      15 0.2753E-05
      16 0.5051E-05
      17 0.2567E-05
      18 0.2630E-05
      19 0.2710E-05
      20 0.5471E-05
      21 0.4234E-04
      22 0.1015E-03
      23 0.7763E-04
      24 0.1174E-03
      25 0.1216E-04
      26 0.1142E-04
      27 0.9997E-05
      28 0.1262E-04
      29 0.9705E-05
      30 0.8346E-05
      31 0.1214E-04
      32 0.6760E-05
      33 0.6597E-05
      34 0.5848E-05
      35 0.6726E-05
      36 0.8009E-05
      37 0.4214E-05
      38 0.4289E-05
      39 0.3830E-05
      40 0.4035E-05
      41 0.4064E-05
      42 0.4084E-05
      43 0.4099E-05
      44 0.4069E-05
      45 0.1306E-04
      46 0.2129E-04
      47 0.3893E-05
      48 0.3613E-05
      49 0.4903E-05
      50 0.3855E-05
      51 0.2989E-04
      52 0.3250E-05
      53 0.4324E-05
      54 0.2489E-05
      55 0.2341E-05
      56 0.2250E-05
      57 0.2082E-05
      58 0.1953E-05
      59 0.1947E-05
      60 0.1950E-05
      61 0.1967E-05
      62 0.1941E-05
      63 0.1915E-05
      64 0.1869E-05
      65 0.1882E-05
      66 0.1835E-05
      67 0.2128E-05
      68 0.2698E-05
      69 0.2390E-05
      70 0.2926E-05
      71 0.2371E-05
      72 0.2401E-05
      73 0.2384E-05
      74 0.2299E-05
      75 0.2396E-05
      76 0.2395E-05
      77 0.2342E-05
      78 0.2231E-05
      79 0.2521E-05
      80 0.2391E-05
      81 0.2476E-05
      82 0.2399E-05
      83 0.2374E-05
      84 0.2377E-05
      85 0.2391E-05
      86 0.2409E-05
      87 0.2399E-05
      88 0.2383E-05
      89 0.2356E-05
      90 0.3158E-05
      91 0.3255E-05
      92 0.4478E-05
      93 0.4502E-05
      94 0.2724E-05
      95 0.2814E-05
      96 0.2633E-05
      97 0.2674E-05
      98 0.3338E-05
      99 0.2570E-05
     100 0.2565E-05
     101 0.2633E-05
     102 0.2653E-05
     103 0.3089E-05
     104 0.3214E-05
     105 0.3087E-05
     106 0.3181E-05
     107 0.3674E-05
     108 0.3112E-05
     109 0.3044E-05
     110 0.3059E-05
     111 0.3175E-05
     112 0.3352E-05
     113 0.3102E-05
     114 0.3108E-05
     115 0.3183E-05
     116 0.3241E-05
     117 0.3746E-05
     118 0.4468E-05
     119 0.4404E-05
     120 0.3633E-05
     121 0.3079E-05
     122 0.2919E-05
     123 0.3173E-05
     124 0.3765E-05
     125 0.8909E-05
     126 0.4996E-05
     127 0.4009E-05
     128 0.2938E-05
     129 0.2666E-05
     130 0.2589E-05
     131 0.2567E-05
     132 0.2852E-05
     133 0.2776E-05
     134 0.2752E-05
     135 0.2734E-05
     136 0.2735E-05
     137 0.2787E-05
     138 0.2638E-05
     139 0.2729E-05
     140 0.2697E-05
     141 0.3221E-05
     142 0.3184E-05
     143 0.3286E-05
     144 0.3311E-05
     145 0.2771E-05
     146 0.3088E-05
     147 0.3302E-05
     148 0.3328E-05
     149 0.2848E-05
     150 0.2845E-05
     151 0.2822E-05
     152 0.2765E-05
     153 0.3034E-05
     154 0.3264E-05
     155 0.3139E-05
     156 0.2908E-05
     157 0.3906E-05
     158 0.3751E-05
     159 0.2530E-05
     160 0.2673E-05
     161 0.2528E-05
     162 0.2523E-05
     163 0.2546E-05
     164 0.2541E-05
     165 0.2539E-05
     166 0.2523E-05
     167 0.2529E-05
     168 0.2507E-05
     169 0.3029E-05
     170 0.2530E-05
     171 0.2509E-05
     172 0.2471E-05
     173 0.2379E-05
     174 0.2363E-05
     175 0.2350E-05
     176 0.2371E-05
     177 0.2425E-05
     178 0.2411E-05
     179 0.2413E-05
     180 0.3265E-05
     181 0.3106E-05
     182 0.2413E-05
     183 0.2406E-05
     184 0.2432E-05
     185 0.2442E-05
     186 0.2541E-05
     187 0.2448E-05
     188 0.2316E-05
     189 0.2257E-05
     190 0.2376E-05
     191 0.2289E-05
     192 0.2282E-05
     193 0.2267E-05
     194 0.2246E-05
     195 0.2283E-05
     196 0.2270E-05
     197 0.2370E-05
     198 0.2580E-05
     199 0.2724E-05
     200 0.2405E-05
     201 0.2147E-05
     202 0.2886E-05
     203 0.2924E-05
     204 0.2175E-05
     205 0.2166E-05
     206 0.2256E-05
     207 0.2154E-05
     208 0.2357E-05
     209 0.2320E-05
     210 0.2700E-05
     211 0.2554E-05
     212 0.2605E-05
     213 0.2461E-05
     214 0.2504E-05
     215 0.2530E-05
     216 0.2517E-05
     217 0.2536E-05
     218 0.2504E-05
     219 0.2544E-05
     220 0.2575E-05
     221 0.2658E-05
     222 0.2650E-05
     223 0.2631E-05
     224 0.2591E-05
     225 0.2624E-05
     226 0.2615E-05
     227 0.2791E-05
     228 0.2810E-05
     229 0.2617E-05
     230 0.2590E-05
     231 0.2869E-05
     232 0.2551E-05
     233 0.2734E-05
     234 0.2568E-05
     235 0.2600E-05
     236 0.2657E-05
     237 0.2634E-05
     238 0.2681E-05
     239 0.2625E-05
     240 0.2609E-05
     241 0.2677E-05
     242 0.2423E-05
     243 0.2512E-05
     244 0.2512E-05
     245 0.2532E-05
     246 0.2663E-05
     247 0.3121E-05
     248 0.3113E-05
     249 0.3085E-05
     250 0.3114E-05
     251 0.3144E-05
     252 0.3087E-05
     253 0.2952E-05
     254 0.2964E-05
     255 0.2660E-05
     256 0.2624E-05
     257 0.2615E-05
     258 0.2702E-05
     259 0.2622E-05
     260 0.2634E-05
     261 0.2688E-05
     262 0.2789E-05
     263 0.2753E-05
     264 0.2740E-05
     265 0.2751E-05
     266 0.2820E-05
     267 0.2741E-05
     268 0.2710E-05
     269 0.2788E-05
     270 0.2813E-05
     271 0.2810E-05
     272 0.2823E-05
     273 0.2813E-05
     274 0.2793E-05
     275 0.2816E-05
     276 0.2656E-05
     277 0.2653E-05
     278 0.2638E-05
     279 0.2623E-05
     280 0.2633E-05
     281 0.2609E-05
     282 0.2580E-05
     283 0.2705E-05
     284 0.2607E-05
     285 0.2601E-05
     286 0.2627E-05
     287 0.2583E-05
     288 0.2540E-05
     289 0.2826E-05
     290 0.2883E-05
     291 0.2710E-05
     292 0.2600E-05
     293 0.2512E-05
     294 0.2494E-05
     295 0.2614E-05
     296 0.2481E-05
     297 0.2394E-05
     298 0.2391E-05
     299 0.2369E-05
     300 0.2368E-05
     301 0.2494E-05
     302 0.2551E-05
     303 0.2635E-05
     304 0.2877E-05
     305 0.3010E-05
     306 0.3437E-05
     307 0.5559E-05
     308 0.4174E-05
     309 0.2426E-05
     310 0.2507E-05
     311 0.2601E-05
     312 0.2432E-05
     313 0.2360E-05
     314 0.2599E-05
     315 0.2274E-05
     316 0.2306E-05
     317 0.2202E-05
     318 0.2327E-05
     319 0.6309E-05
     320 0.8880E-05
     321 0.3103E-05
     322 0.3679E-05
     323 0.3352E-05
     324 0.3172E-05
     325 0.4897E-05
     326 0.4652E-05
     327 0.2373E-04
     328 0.3242E-05
     329 0.2492E-05
     330 0.2429E-05
     331 0.2285E-05
     332 0.2106E-05
     333 0.2236E-05
     334 0.3062E-05
     335 0.2719E-05
     336 0.2670E-05
     337 0.2531E-05
     338 0.2585E-05
     339 0.4662E-05
     340 0.2746E-05
     341 0.2995E-05
     342 0.3145E-05
     343 0.2833E-05
     344 0.2614E-05
     345 0.2675E-05
     346 0.2628E-05
     347 0.2861E-05
     348 0.2715E-05
     349 0.6323E-05
     350 0.2608E-05
     351 0.2544E-05
     352 0.2579E-05
     353 0.2637E-05
     354 0.2976E-05
     355 0.2532E-05
     356 0.2512E-05
     357 0.4299E-05
     358 0.3018E-05
     359 0.3103E-05
     360 0.2602E-05
     361 0.2726E-05
     362 0.3409E-05
     363 0.3120E-05
     364 0.4325E-05
     365 0.2560E-05
     366 0.2564E-05
     367 0.2601E-05
     368 0.2639E-05
     369 0.2482E-05
     370 0.2402E-05
     371 0.2357E-05
     372 0.3651E-05
     373 0.2532E-05
     374 0.2538E-05
     375 0.2370E-05
     376 0.3130E-05
     377 0.2550E-05
     378 0.3609E-05
     379 0.2536E-05
     380 0.2396E-05
     381 0.2396E-05
     382 0.2466E-05
     383 0.2379E-05
     384 0.2365E-05
     385 0.2367E-05
     386 0.2457E-05
     387 0.2673E-05
     388 0.2419E-05
     389 0.2390E-05
     390 0.2372E-05
     391 0.2353E-05
     392 0.2359E-05
     393 0.2360E-05
     394 0.2484E-05
     395 0.2762E-05
     396 0.2318E-05
     397 0.2320E-05
     398 0.2307E-05
     399 0.2372E-05
     400 0.2386E-05
     401 0.2333E-05
     402 0.2294E-05
     403 0.2274E-05
     404 0.2256E-05
     405 0.2241E-05
     406 0.2179E-05
     407 0.2159E-05
     408 0.2245E-05
     409 0.2954E-05
     410 0.2807E-05
     411 0.2595E-05
     412 0.2644E-05
     413 0.2538E-05
     414 0.2560E-05
     415 0.3031E-05
     416 0.2077E-04
     417 0.2975E-04
     418 0.1904E-04
     419 0.6959E-05
     420 0.3299E-05
     421 0.3283E-05
     422 0.2515E-05
     423 0.2837E-05
     424 0.2190E-05
     425 0.2182E-05
     426 0.2800E-05
     427 0.2315E-05
     428 0.2181E-05
     429 0.2221E-05
     430 0.2229E-05
     431 0.2208E-05
     432 0.2198E-05
     433 0.2272E-05
     434 0.2230E-05
     435 0.2226E-05
     436 0.2201E-05
     437 0.2266E-05
     438 0.2584E-05
     439 0.2196E-05
     440 0.2189E-05
     441 0.2178E-05
     442 0.2167E-05
     443 0.2252E-05
     444 0.2195E-05
     445 0.2192E-05
     446 0.2257E-05
     447 0.2193E-05
     448 0.2254E-05
     449 0.2189E-05
     450 0.2179E-05
     451 0.2272E-05
     452 0.2174E-05
     453 0.2174E-05
     454 0.2290E-05
     455 0.2179E-05
     456 0.2165E-05
     457 0.2162E-05
     458 0.2186E-05
     459 0.2191E-05
     460 0.2182E-05
     461 0.2171E-05
     462 0.2173E-05
     463 0.2180E-05
     464 0.2174E-05
     465 0.2173E-05
     466 0.2166E-05
     467 0.2188E-05
     468 0.2160E-05
     469 0.2155E-05
     470 0.2205E-05
     471 0.2228E-05
     472 0.2133E-05
     473 0.2123E-05
     474 0.2124E-05
     475 0.2156E-05
     476 0.2114E-05
     477 0.2108E-05
     478 0.2115E-05
     479 0.2294E-05
     480 0.2113E-05
     481 0.2093E-05
     482 0.2108E-05
     483 0.2092E-05
     484 0.2231E-05
     485 0.2286E-05
     486 0.2234E-05
     487 0.2207E-05
     488 0.2503E-05
     489 0.2247E-05
     490 0.2208E-05
     491 0.2276E-05
     492 0.2212E-05
     493 0.2129E-05
     494 0.2293E-05
     495 0.2036E-05
     496 0.2673E-05
     497 0.2363E-05
     498 0.2246E-05
     499 0.2899E-05
     500 0.2274E-05
     501 0.2274E-05
NUMERICAL WARNING:: IterSolve: Failed convergence tolerances.
ComputeChange: NS (ITER=20) (NRM,RELC): ( 0.35628940E-01 0.20409818E-04 ) :: helmholtz equation
HelmholtzSolve: iter:   20 Assembly: (s)   32.89  747.24
HelmholtzSolve: iter:   20 Solve:    (s)   70.95 2221.87
ComputeChange: SS (ITER=1) (NRM,RELC): ( 0.35628940E-01  2.0000000     ) :: helmholtz equation
SingleSolver: Attempting to call solver
SingleSolver: Solver Equation string is: result output
ResultOutputSolver: -------------------------------------
ResultOutputSolve: Saving with prefix: case3
ResultOutputSolver: Creating list for saving - if not present
CreateListForSaving: Field Variables for Saving
ResultOutputSolver: Saving in unstructured VTK XML (.vtu) format
VtuOutputSolver: Saving results in VTK XML format with prefix: case3
VtuOutputSolver: Saving number of partitions: 1
ResultOutputSolver: -------------------------------------
ElmerSolver: *** Elmer Solver: ALL DONE ***
ElmerSolver: The end
SOLVER TOTAL TIME(CPU,REAL):      3655.90     3773.32
ELMER SOLVER FINISHED AT: 2017/08/19 01:08:44
