ELMER SOLVER (v 8.3) STARTED AT: 2017/08/19 00:05:51
ParCommInit:  Initialize #PEs:            1
MAIN: 
MAIN: =============================================================
MAIN: ElmerSolver finite element software, Welcome!
MAIN: This program is free software licensed under (L)GPL
MAIN: Copyright 1st April 1995 - , CSC - IT Center for Science Ltd.
MAIN: Webpage http://www.csc.fi/elmer, Email elmeradm@csc.fi
MAIN: Version: 8.3 (Rev: unknown, Compiled: 2017-08-17)
MAIN: =============================================================
MAIN: 
MAIN: 
MAIN: -------------------------------------
MAIN: Reading Model: case4.sif
LoadInputFile: Scanning input file: case4.sif
LoadInputFile: Loading input file: case4.sif
Model Input:  Unlisted keyword: [stress bodyforce 1 im] in section: [body force 1]
WARNING:: LoadInputFile: > Equation 3 < not used in any Body!
Loading user function library: [ResultOutputSolve]...[ResultOutputSolver_Init0]
Loading user function library: [StressSolve]...[StressSolver_Init0]
Loading user function library: [HelmholtzSolve]...[HelmholtzSolver_Init0]
LoadMesh: Base mesh name: ./.
LoadMesh: Elapsed REAL time:     0.6031 (s)
WARNING:: CheckTimer: Requesting time from non-existing timer: LoadMesh
WARNING:: ListFind: 
WARNING:: ListFind:  Requested property: [Stabilization Use Longest Element Edge], not found
WARNING:: ListFind: 
WARNING:: CheckTimer: Requesting time from non-existing timer: MeshStabParams
MAIN: -------------------------------------
Loading user function library: [ResultOutputSolve]...[ResultOutputSolver_Init]
Loading user function library: [ResultOutputSolve]...[ResultOutputSolver_bulk]
Loading user function library: [ResultOutputSolve]...[ResultOutputSolver]
Loading user function library: [StressSolve]...[StressSolver_Init]
Loading user function library: [StressSolve]...[StressSolver_bulk]
Loading user function library: [StressSolve]...[StressSolver]
OptimizeBandwidth: ---------------------------------------------------------
OptimizeBandwidth: Computing matrix structure for: linear elasticity...done.
OptimizeBandwidth: Half bandwidth without optimization: 19819
OptimizeBandwidth: 
OptimizeBandwidth: Bandwidth Optimization ...done.
OptimizeBandwidth: Half bandwidth after optimization: 1286
OptimizeBandwidth: ---------------------------------------------------------
Loading user function library: [HelmholtzSolve]...[HelmholtzSolver_Init]
Loading user function library: [HelmholtzSolve]...[HelmholtzSolver_bulk]
Loading user function library: [HelmholtzSolve]...[HelmholtzSolver]
OptimizeBandwidth: ---------------------------------------------------------
OptimizeBandwidth: Computing matrix structure for: helmholtz equation...done.
OptimizeBandwidth: Half bandwidth without optimization: 290711
OptimizeBandwidth: 
OptimizeBandwidth: Bandwidth Optimization ...done.
OptimizeBandwidth: Half bandwidth after optimization: 22938
OptimizeBandwidth: ---------------------------------------------------------
MAIN: 
MAIN: -------------------------------------
MAIN:  Steady state iteration:            1
MAIN: -------------------------------------
MAIN: 
SingleSolver: Attempting to call solver
SingleSolver: Solver Equation string is: linear elasticity
StressSolve: 
StressSolve: --------------------------------------------------
StressSolve: Solving displacements from linear elasticity model
StressSolve: --------------------------------------------------
StressSolve:  Displacemet iteration:            1
StressSolve: Starting assembly...
StressSolve: Assembly:
: ......Bulk assembly done
DefUtils::DefaultDirichletBCs: Setting Dirichlet boundary conditions
DefUtils::DefaultDirichletBCs: Dirichlet boundary conditions set
StressSolve: Set boundaries done
OptimizeBandwidth: ---------------------------------------------------------
OptimizeBandwidth: Computing matrix structure for: linear elasticity...done.
OptimizeBandwidth: Half bandwidth without optimization: 19819
OptimizeBandwidth: 
OptimizeBandwidth: Bandwidth Optimization ...done.
OptimizeBandwidth: Half bandwidth after optimization: 1286
OptimizeBandwidth: ---------------------------------------------------------
HarmonicSolve: 
HarmonicSolve: Frequency value:    0.771E+02
ComputeChange: NS (ITER=1) (NRM,RELC): ( 0.28151193E-07  2.0000000     ) :: linear elasticity
StressSolve:  Displacemet iteration:            2
StressSolve: Starting assembly...
StressSolve: Assembly:
: ......Bulk assembly done
DefUtils::DefaultDirichletBCs: Setting Dirichlet boundary conditions
DefUtils::DefaultDirichletBCs: Dirichlet boundary conditions set
StressSolve: Set boundaries done
HarmonicSolve: 
HarmonicSolve: Frequency value:    0.771E+02
ComputeChange: NS (ITER=2) (NRM,RELC): ( 0.28151193E-07  0.0000000     ) :: linear elasticity
StressSolver: Computing stresses for eigenmode: 1
StressSolver: ------------------------------------------
StressSolver: Starting Stress Computation
OptimizeBandwidth: ---------------------------------------------------------
OptimizeBandwidth: Computing matrix structure for: calculate stresses...done.
OptimizeBandwidth: Half bandwidth without optimization: 19819
OptimizeBandwidth: 
OptimizeBandwidth: Bandwidth Optimization ...done.
OptimizeBandwidth: Half bandwidth after optimization: 1286
OptimizeBandwidth: ---------------------------------------------------------
StressSolver: Solving for Stress(1,1)
StressSolver: Solving for Stress(1,2)
StressSolver: Solving for Stress(1,3)
StressSolver: Solving for Stress(2,2)
StressSolver: Solving for Stress(2,3)
StressSolver: Solving for Stress(3,3)
StressSolver: Finished Stress Computation
StressSolver: ------------------------------------------
StressSolver: ------------------------------------------
StressSolver: Starting Stress Computation
StressSolver: Solving for Stress(1,1)
SolveSystem: Solution trivially zero!
StressSolver: Solving for Stress(1,2)
SolveSystem: Solution trivially zero!
StressSolver: Solving for Stress(1,3)
SolveSystem: Solution trivially zero!
StressSolver: Solving for Stress(2,2)
SolveSystem: Solution trivially zero!
StressSolver: Solving for Stress(2,3)
SolveSystem: Solution trivially zero!
StressSolver: Solving for Stress(3,3)
SolveSystem: Solution trivially zero!
StressSolver: Finished Stress Computation
StressSolver: ------------------------------------------
StressSolver: All done
StressSolver: ------------------------------------------
ComputeChange: SS (ITER=1) (NRM,RELC): (  0.0000000      0.0000000     ) :: linear elasticity
SingleSolver: Attempting to call solver
SingleSolver: Solver Equation string is: helmholtz equation
HelmholtzSolve: 
HelmholtzSolve: -------------------------------------
HelmholtzSolve:  Helmholtz iteration           1
HelmholtzSolve:  Frequency (Hz):    77.087100000000007
HelmholtzSolve: -------------------------------------
HelmholtzSolve: 
HelmholtzSolve: Starting Assembly
HelmholtzSolve: Assembly:
: .................... 31%
: .................... 62%
: .................... 92%
: .....Assembly done
DefUtils::DefaultDirichletBCs: Setting Dirichlet boundary conditions
DefUtils::DefaultDirichletBCs: Dirichlet boundary conditions set
       1 0.5569E+00
       2 0.4317E+00
       3 0.4007E+00
       4 0.3766E+00
       5 0.3473E+00
       6 0.3307E+00
       7 0.3170E+00
       8 0.3014E+00
       9 0.2871E+00
      10 0.2737E+00
      11 0.2601E+00
      12 0.2466E+00
      13 0.2331E+00
      14 0.2202E+00
      15 0.2074E+00
      16 0.1954E+00
      17 0.1853E+00
      18 0.1760E+00
      19 0.1673E+00
      20 0.1592E+00
      21 0.1517E+00
      22 0.1442E+00
      23 0.1370E+00
      24 0.1302E+00
      25 0.1234E+00
      26 0.1166E+00
      27 0.1105E+00
      28 0.1049E+00
      29 0.9986E-01
      30 0.9537E-01
      31 0.9115E-01
      32 0.8718E-01
      33 0.8339E-01
      34 0.7996E-01
      35 0.7664E-01
      36 0.7252E-01
      37 0.7215E-01
      38 0.6885E-01
      39 0.6242E-01
      40 0.6125E-01
      41 0.6017E-01
      42 0.5957E-01
      43 0.5883E-01
      44 0.5962E-01
      45 0.5898E-01
      46 0.5890E-01
      47 0.5830E-01
      48 0.5706E-01
      49 0.5715E-01
      50 0.5849E-01
      51 0.6074E-01
      52 0.6010E-01
      53 0.5903E-01
      54 0.6551E-01
      55 0.6268E-01
      56 0.6876E-01
      57 0.6616E-01
      58 0.6547E-01
      59 0.6116E-01
      60 0.6318E-01
      61 0.7550E-01
      62 0.7541E-01
      63 0.8051E-01
      64 0.7419E-01
      65 0.7345E-01
      66 0.8552E-01
      67 0.8588E-01
      68 0.8164E-01
      69 0.8691E-01
      70 0.8175E-01
      71 0.8536E-01
      72 0.8859E-01
      73 0.9143E-01
      74 0.1282E+00
      75 0.1001E+00
      76 0.9997E-01
      77 0.9395E-01
      78 0.9292E-01
      79 0.8567E-01
      80 0.8837E-01
      81 0.7442E-01
      82 0.7048E-01
      83 0.1026E+00
      84 0.9495E-01
      85 0.8725E-01
      86 0.8021E-01
      87 0.7566E-01
      88 0.7318E-01
      89 0.6703E-01
      90 0.6653E-01
      91 0.6261E-01
      92 0.5837E-01
      93 0.5383E-01
      94 0.5159E-01
      95 0.4944E-01
      96 0.4636E-01
      97 0.5855E-01
      98 0.5888E-01
      99 0.5317E-01
     100 0.4678E-01
     101 0.4517E-01
     102 0.4638E-01
     103 0.4417E-01
     104 0.4118E-01
     105 0.3925E-01
     106 0.3616E-01
     107 0.3503E-01
     108 0.3544E-01
     109 0.3685E-01
     110 0.3156E-01
     111 0.3134E-01
     112 0.2979E-01
     113 0.3157E-01
     114 0.2987E-01
     115 0.2956E-01
     116 0.2990E-01
     117 0.2764E-01
     118 0.2990E-01
     119 0.2875E-01
     120 0.2829E-01
     121 0.2796E-01
     122 0.2762E-01
     123 0.2841E-01
     124 0.2594E-01
     125 0.2547E-01
     126 0.2668E-01
     127 0.2358E-01
     128 0.2352E-01
     129 0.2354E-01
     130 0.2222E-01
     131 0.2163E-01
     132 0.2211E-01
     133 0.2118E-01
     134 0.2091E-01
     135 0.2207E-01
     136 0.2276E-01
     137 0.2205E-01
     138 0.2054E-01
     139 0.2005E-01
     140 0.2011E-01
     141 0.1944E-01
     142 0.2236E-01
     143 0.1834E-01
     144 0.1862E-01
     145 0.1855E-01
     146 0.1743E-01
     147 0.2086E-01
     148 0.1746E-01
     149 0.1801E-01
     150 0.1873E-01
     151 0.1805E-01
     152 0.1685E-01
     153 0.1702E-01
     154 0.1727E-01
     155 0.1733E-01
     156 0.1754E-01
     157 0.1817E-01
     158 0.1813E-01
     159 0.2742E-01
     160 0.2234E-01
     161 0.1923E-01
     162 0.1823E-01
     163 0.1794E-01
     164 0.1778E-01
     165 0.1724E-01
     166 0.1719E-01
     167 0.1711E-01
     168 0.1707E-01
     169 0.1686E-01
     170 0.2103E-01
     171 0.1561E-01
     172 0.1576E-01
     173 0.1569E-01
     174 0.1541E-01
     175 0.1528E-01
     176 0.1507E-01
     177 0.1505E-01
     178 0.1505E-01
     179 0.1505E-01
     180 0.1501E-01
     181 0.1503E-01
     182 0.1697E-01
     183 0.1679E-01
     184 0.1623E-01
     185 0.1879E-01
     186 0.1785E-01
     187 0.1602E-01
     188 0.1717E-01
     189 0.1642E-01
     190 0.1586E-01
     191 0.1586E-01
     192 0.1587E-01
     193 0.1581E-01
     194 0.1583E-01
     195 0.1583E-01
     196 0.1583E-01
     197 0.1580E-01
     198 0.1592E-01
     199 0.1568E-01
     200 0.1562E-01
     201 0.1527E-01
     202 0.1532E-01
     203 0.2295E-01
     204 0.2680E-01
     205 0.3511E-01
     206 0.1953E-01
     207 0.1633E-01
     208 0.1744E-01
     209 0.1730E-01
     210 0.1560E-01
     211 0.1428E-01
     212 0.1422E-01
     213 0.1410E-01
     214 0.1359E-01
     215 0.1369E-01
     216 0.1385E-01
     217 0.1350E-01
     218 0.1348E-01
     219 0.1345E-01
     220 0.1345E-01
     221 0.1348E-01
     222 0.1324E-01
     223 0.1325E-01
     224 0.1322E-01
     225 0.1319E-01
     226 0.1321E-01
     227 0.1344E-01
     228 0.1323E-01
     229 0.1318E-01
     230 0.1311E-01
     231 0.1309E-01
     232 0.1300E-01
     233 0.1298E-01
     234 0.1344E-01
     235 0.1546E-01
     236 0.1707E-01
     237 0.1298E-01
     238 0.1297E-01
     239 0.1296E-01
     240 0.1293E-01
     241 0.1293E-01
     242 0.1292E-01
     243 0.1453E-01
     244 0.1330E-01
     245 0.1312E-01
     246 0.1308E-01
     247 0.1363E-01
     248 0.1325E-01
     249 0.1330E-01
     250 0.1295E-01
     251 0.1282E-01
     252 0.1268E-01
     253 0.1275E-01
     254 0.1266E-01
     255 0.1282E-01
     256 0.1278E-01
     257 0.1290E-01
     258 0.1303E-01
     259 0.1260E-01
     260 0.1267E-01
     261 0.1256E-01
     262 0.1415E-01
     263 0.1254E-01
     264 0.1217E-01
     265 0.1211E-01
     266 0.1211E-01
     267 0.1215E-01
     268 0.1218E-01
     269 0.1217E-01
     270 0.1220E-01
     271 0.1219E-01
     272 0.1217E-01
     273 0.1216E-01
     274 0.1225E-01
     275 0.1215E-01
     276 0.1215E-01
     277 0.1183E-01
     278 0.1224E-01
     279 0.1206E-01
     280 0.1199E-01
     281 0.1200E-01
     282 0.1193E-01
     283 0.1208E-01
     284 0.1228E-01
     285 0.1346E-01
     286 0.1212E-01
     287 0.1205E-01
     288 0.1207E-01
     289 0.1254E-01
     290 0.1242E-01
     291 0.1238E-01
     292 0.1321E-01
     293 0.1333E-01
     294 0.1342E-01
     295 0.1349E-01
     296 0.1391E-01
     297 0.1328E-01
     298 0.1321E-01
     299 0.1408E-01
     300 0.1630E-01
     301 0.1358E-01
     302 0.1579E-01
     303 0.1817E-01
     304 0.1722E-01
     305 0.1696E-01
     306 0.1791E-01
     307 0.1803E-01
     308 0.1646E-01
     309 0.1685E-01
     310 0.1695E-01
     311 0.2007E-01
     312 0.1855E-01
     313 0.1902E-01
     314 0.1824E-01
     315 0.2002E-01
     316 0.1835E-01
     317 0.1651E-01
     318 0.1799E-01
     319 0.1789E-01
     320 0.1842E-01
     321 0.2243E-01
     322 0.1944E-01
     323 0.1949E-01
     324 0.1998E-01
     325 0.1959E-01
     326 0.1914E-01
     327 0.1952E-01
     328 0.1823E-01
     329 0.1810E-01
     330 0.1772E-01
     331 0.1816E-01
     332 0.1815E-01
     333 0.1812E-01
     334 0.1881E-01
     335 0.1832E-01
     336 0.1921E-01
     337 0.1797E-01
     338 0.1795E-01
     339 0.1863E-01
     340 0.1810E-01
     341 0.1789E-01
     342 0.1800E-01
     343 0.1796E-01
     344 0.1689E-01
     345 0.1628E-01
     346 0.1904E-01
     347 0.2036E-01
     348 0.1666E-01
     349 0.1533E-01
     350 0.1612E-01
     351 0.1701E-01
     352 0.1686E-01
     353 0.1660E-01
     354 0.1952E-01
     355 0.1818E-01
     356 0.1507E-01
     357 0.2285E-01
     358 0.1800E-01
     359 0.7920E-01
     360 0.2339E+00
     361 0.6045E-01
     362 0.2853E-01
     363 0.1629E-01
     364 0.1634E-01
     365 0.1632E-01
     366 0.1599E-01
     367 0.1605E-01
     368 0.1667E-01
     369 0.1549E-01
     370 0.2043E-01
     371 0.1660E-01
     372 0.1563E-01
     373 0.1562E-01
     374 0.1671E-01
     375 0.1548E-01
     376 0.1672E-01
     377 0.1542E-01
     378 0.1556E-01
     379 0.1477E-01
     380 0.1469E-01
     381 0.1527E-01
     382 0.1618E-01
     383 0.1644E-01
     384 0.1590E-01
     385 0.1468E-01
     386 0.1564E-01
     387 0.1693E-01
     388 0.1640E-01
     389 0.1779E-01
     390 0.1750E-01
     391 0.1884E-01
     392 0.1736E-01
     393 0.1718E-01
     394 0.1580E-01
     395 0.1598E-01
     396 0.1579E-01
     397 0.1575E-01
     398 0.1613E-01
     399 0.1566E-01
     400 0.1581E-01
     401 0.1565E-01
     402 0.1554E-01
     403 0.1586E-01
     404 0.1586E-01
     405 0.1624E-01
     406 0.1578E-01
     407 0.1572E-01
     408 0.1689E-01
     409 0.1620E-01
     410 0.3859E-01
     411 0.1549E-01
     412 0.1403E-01
     413 0.1431E-01
     414 0.1429E-01
     415 0.1438E-01
     416 0.1448E-01
     417 0.1493E-01
     418 0.1280E-01
     419 0.2904E-01
     420 0.2699E-01
     421 0.1016E-01
     422 0.9413E-02
     423 0.8719E-02
     424 0.8655E-02
     425 0.8928E-02
     426 0.9489E-02
     427 0.1001E-01
     428 0.9915E-02
     429 0.9176E-02
     430 0.9347E-02
     431 0.9379E-02
     432 0.9264E-02
     433 0.7929E-02
     434 0.8254E-02
     435 0.8404E-02
     436 0.9518E-02
     437 0.9475E-02
     438 0.9616E-02
     439 0.9247E-02
     440 0.1052E-01
     441 0.1089E-01
     442 0.1114E-01
     443 0.1110E-01
     444 0.8873E-02
     445 0.8852E-02
     446 0.8871E-02
     447 0.8811E-02
     448 0.1327E-01
     449 0.1330E-01
     450 0.3674E-01
     451 0.1825E-01
     452 0.2123E-01
     453 0.2822E-01
     454 0.3794E-01
     455 0.2863E-01
     456 0.2924E-01
     457 0.2129E-01
     458 0.1398E-01
     459 0.1086E-01
     460 0.1975E-01
     461 0.1433E+00
     462 0.2403E-01
     463 0.2378E-01
     464 0.2306E-01
     465 0.2215E-01
     466 0.2011E-01
     467 0.2865E-01
     468 0.8818E-02
     469 0.9414E-02
     470 0.1915E-01
     471 0.1954E-01
     472 0.2042E-01
     473 0.2023E-01
     474 0.1788E-01
     475 0.1955E-01
     476 0.1813E-01
     477 0.1824E-01
     478 0.1845E-01
     479 0.1771E-01
     480 0.2117E-01
     481 0.1368E-01
     482 0.1605E-01
     483 0.1395E-01
     484 0.1410E-01
     485 0.1070E-01
     486 0.1156E-01
     487 0.1147E-01
     488 0.1173E-01
     489 0.1137E-01
     490 0.1131E-01
     491 0.1021E-01
     492 0.1335E-01
     493 0.1506E-01
     494 0.1020E-01
     495 0.1001E-01
     496 0.9957E-02
     497 0.9934E-02
     498 0.9586E-02
     499 0.9573E-02
     500 0.9461E-02
     501 0.9461E-02
NUMERICAL WARNING:: IterSolve: Failed convergence tolerances.
ComputeChange: NS (ITER=1) (NRM,RELC): ( 0.16066661E-02  2.0000000     ) :: helmholtz equation
HelmholtzSolve: iter:    1 Assembly: (s)   65.62   65.62
HelmholtzSolve: iter:    1 Solve:    (s)  191.23  191.23
HelmholtzSolve: 
HelmholtzSolve: -------------------------------------
HelmholtzSolve:  Helmholtz iteration           2
HelmholtzSolve:  Frequency (Hz):    77.087100000000007
HelmholtzSolve: -------------------------------------
HelmholtzSolve: 
HelmholtzSolve: Starting Assembly
HelmholtzSolve: Assembly:
: .................... 31%
: .................... 62%
: .................... 92%
: .....Assembly done
DefUtils::DefaultDirichletBCs: Setting Dirichlet boundary conditions
DefUtils::DefaultDirichletBCs: Dirichlet boundary conditions set
       1 0.2073E+00
       2 0.2317E+00
       3 0.2935E-01
       4 0.1078E-01
       5 0.1053E-01
       6 0.1170E-01
       7 0.1155E-01
       8 0.1572E-01
       9 0.4557E+00
      10 0.1683E+00
      11 0.9604E-01
      12 0.9081E-01
      13 0.9575E-01
      14 0.1069E+00
      15 0.4677E-01
      16 0.2915E-01
      17 0.3059E-01
      18 0.1961E-01
      19 0.1883E-01
      20 0.2224E-01
      21 0.2572E-01
      22 0.2343E-01
      23 0.2578E-01
      24 0.2731E-01
      25 0.2335E-01
      26 0.6054E-01
      27 0.2337E-01
      28 0.2703E-01
      29 0.2044E-01
      30 0.7966E-01
      31 0.5439E-01
      32 0.5577E-01
      33 0.5215E-01
      34 0.5939E-01
      35 0.8388E-01
      36 0.1260E+00
      37 0.2763E-01
      38 0.3290E-01
      39 0.2385E-01
      40 0.2183E-01
      41 0.1896E-01
      42 0.2130E-01
      43 0.2287E-01
      44 0.2908E-01
      45 0.3251E-01
      46 0.5009E-01
      47 0.4139E-01
      48 0.5010E-01
      49 0.2011E-01
      50 0.1095E-01
      51 0.1107E-01
      52 0.1335E-01
      53 0.1153E-01
      54 0.1128E-01
      55 0.1031E-01
      56 0.2606E-01
      57 0.1775E-01
      58 0.1943E-01
      59 0.1812E-01
      60 0.2670E-01
      61 0.7976E-01
      62 0.6389E-01
      63 0.2909E-01
      64 0.1821E-01
      65 0.1786E-01
      66 0.1592E-01
      67 0.1139E-01
      68 0.1057E-01
      69 0.1023E-01
      70 0.1203E-01
      71 0.1137E-01
      72 0.1110E-01
      73 0.1074E-01
      74 0.1233E-01
      75 0.2225E-01
      76 0.1726E-01
      77 0.1312E-01
      78 0.1385E-01
      79 0.1401E-01
      80 0.1412E-01
      81 0.1401E-01
      82 0.1504E-01
      83 0.1442E-01
      84 0.1473E-01
      85 0.1404E-01
      86 0.2167E-01
      87 0.2492E-01
      88 0.1848E-01
      89 0.1670E-01
      90 0.1695E-01
      91 0.1703E-01
      92 0.1688E-01
      93 0.1744E-01
      94 0.1779E-01
      95 0.1809E-01
      96 0.1689E-01
      97 0.1689E-01
      98 0.1876E-01
      99 0.2062E-01
     100 0.2504E-01
     101 0.3663E-01
     102 0.1741E+00
     103 0.5400E-01
     104 0.4018E-01
     105 0.2082E-01
     106 0.2043E-01
     107 0.1933E-01
     108 0.1757E-01
     109 0.1881E-01
     110 0.1825E-01
     111 0.1848E-01
     112 0.1742E-01
     113 0.1740E-01
     114 0.1767E-01
     115 0.1769E-01
     116 0.2131E-01
     117 0.2074E-01
     118 0.2564E-01
     119 0.2963E-01
     120 0.2958E-01
     121 0.3295E-01
     122 0.2884E-01
     123 0.2659E-01
     124 0.2847E-01
     125 0.2306E-01
     126 0.3617E-01
     127 0.3611E-01
     128 0.3489E-01
     129 0.5423E-01
     130 0.3909E-01
     131 0.4616E-01
     132 0.2412E-01
     133 0.3988E-01
     134 0.7611E-01
     135 0.7412E-01
     136 0.5997E-01
     137 0.5491E-01
     138 0.2662E-01
     139 0.2162E-01
     140 0.2004E-01
     141 0.3781E-01
     142 0.3350E-01
     143 0.3404E-01
     144 0.2944E-01
     145 0.2318E-01
     146 0.2185E-01
     147 0.2219E-01
     148 0.1883E-01
     149 0.1804E-01
     150 0.1781E-01
     151 0.1842E-01
     152 0.1699E-01
     153 0.2740E-01
     154 0.2651E-01
     155 0.2608E-01
     156 0.2614E-01
     157 0.1304E-01
     158 0.1632E-01
     159 0.1669E-01
     160 0.1740E-01
     161 0.1579E-01
     162 0.1667E-01
     163 0.1549E-01
     164 0.1496E-01
     165 0.1468E-01
     166 0.1540E-01
     167 0.1471E-01
     168 0.1269E-01
     169 0.1198E-01
     170 0.1245E-01
     171 0.2541E-01
     172 0.2496E-01
     173 0.1417E-01
     174 0.1009E-01
     175 0.1644E-01
     176 0.2272E-01
     177 0.2146E-01
     178 0.2144E-01
     179 0.5665E-01
     180 0.1009E-01
     181 0.6854E-02
     182 0.6697E-02
     183 0.6085E-02
     184 0.6154E-02
     185 0.6138E-02
     186 0.6590E-02
     187 0.5671E-02
     188 0.5537E-02
     189 0.5556E-02
     190 0.5550E-02
     191 0.5530E-02
     192 0.5585E-02
     193 0.5587E-02
     194 0.5607E-02
     195 0.5606E-02
     196 0.5514E-02
     197 0.5646E-02
     198 0.5630E-02
     199 0.5725E-02
     200 0.5292E-02
     201 0.5203E-02
     202 0.5740E-02
     203 0.5519E-02
     204 0.5402E-02
     205 0.5122E-02
     206 0.5138E-02
     207 0.5122E-02
     208 0.5076E-02
     209 0.5125E-02
     210 0.5156E-02
     211 0.5117E-02
     212 0.5356E-02
     213 0.5205E-02
     214 0.4943E-02
     215 0.4795E-02
     216 0.4495E-02
     217 0.4313E-02
     218 0.4711E-02
     219 0.4928E-02
     220 0.4915E-02
     221 0.4360E-02
     222 0.4169E-02
     223 0.4123E-02
     224 0.4132E-02
     225 0.4059E-02
     226 0.3988E-02
     227 0.3956E-02
     228 0.4227E-02
     229 0.4349E-02
     230 0.4346E-02
     231 0.3881E-02
     232 0.3552E-02
     233 0.3436E-02
     234 0.3583E-02
     235 0.3633E-02
     236 0.3473E-02
     237 0.3459E-02
     238 0.3451E-02
     239 0.3443E-02
     240 0.3466E-02
     241 0.3470E-02
     242 0.3475E-02
     243 0.3455E-02
     244 0.3439E-02
     245 0.3431E-02
     246 0.3412E-02
     247 0.3419E-02
     248 0.3519E-02
     249 0.3468E-02
     250 0.3236E-02
     251 0.3329E-02
     252 0.3050E-02
     253 0.3057E-02
     254 0.2353E-02
     255 0.2591E-02
     256 0.3421E-02
     257 0.3381E-02
     258 0.9289E-02
     259 0.2352E-02
     260 0.2326E-02
     261 0.2398E-02
     262 0.2397E-02
     263 0.2369E-02
     264 0.2301E-02
     265 0.2410E-02
     266 0.2410E-02
     267 0.2580E-02
     268 0.2324E-02
     269 0.2322E-02
     270 0.2328E-02
     271 0.2319E-02
     272 0.2318E-02
     273 0.2259E-02
     274 0.2168E-02
     275 0.2187E-02
     276 0.2313E-02
     277 0.2783E-02
     278 0.2643E-02
     279 0.2674E-02
     280 0.2737E-02
     281 0.2638E-02
     282 0.2640E-02
     283 0.2587E-02
     284 0.2564E-02
     285 0.2555E-02
     286 0.2544E-02
     287 0.2545E-02
     288 0.2549E-02
     289 0.2546E-02
     290 0.2368E-02
     291 0.2293E-02
     292 0.2570E-02
     293 0.2388E-02
     294 0.2313E-02
     295 0.2846E-02
     296 0.2767E-02
     297 0.3391E-02
     298 0.2088E-02
     299 0.2200E-02
     300 0.2190E-02
     301 0.2236E-02
     302 0.2230E-02
     303 0.2233E-02
     304 0.2232E-02
     305 0.2247E-02
     306 0.2251E-02
     307 0.9336E-02
     308 0.6088E-02
     309 0.5787E-02
     310 0.5738E-02
     311 0.5730E-02
     312 0.5708E-02
     313 0.5730E-02
     314 0.5737E-02
     315 0.5602E-02
     316 0.6204E-02
     317 0.5977E-02
     318 0.6595E-02
     319 0.6630E-02
     320 0.6068E-02
     321 0.5785E-02
     322 0.5794E-02
     323 0.5460E-02
     324 0.5441E-02
     325 0.9085E-02
     326 0.7670E-02
     327 0.5627E-02
     328 0.5466E-02
     329 0.5372E-02
     330 0.5405E-02
     331 0.5417E-02
     332 0.5337E-02
     333 0.5233E-02
     334 0.5315E-02
     335 0.5305E-02
     336 0.5080E-02
     337 0.5160E-02
     338 0.5079E-02
     339 0.5600E-02
     340 0.5244E-02
     341 0.5090E-02
     342 0.5102E-02
     343 0.5454E-02
     344 0.6749E-02
     345 0.6304E-02
     346 0.5068E-02
     347 0.5168E-02
     348 0.5233E-02
     349 0.5530E-02
     350 0.6354E-02
     351 0.5262E-02
     352 0.5176E-02
     353 0.5526E-02
     354 0.5055E-02
     355 0.5049E-02
     356 0.4994E-02
     357 0.4989E-02
     358 0.4925E-02
     359 0.4834E-02
     360 0.4805E-02
     361 0.4817E-02
     362 0.4709E-02
     363 0.4703E-02
     364 0.4578E-02
     365 0.4468E-02
     366 0.4717E-02
     367 0.4538E-02
     368 0.4671E-02
     369 0.4535E-02
     370 0.4867E-02
     371 0.5565E-02
     372 0.5503E-02
     373 0.6328E-02
     374 0.6297E-02
     375 0.6250E-02
     376 0.5531E-02
     377 0.6107E-02
     378 0.5552E-02
     379 0.6055E-02
     380 0.7307E-02
     381 0.5789E-02
     382 0.5762E-02
     383 0.5782E-02
     384 0.5835E-02
     385 0.5770E-02
     386 0.6439E-02
     387 0.5955E-02
     388 0.5172E-02
     389 0.5487E-02
     390 0.6163E-02
     391 0.6556E-02
     392 0.6694E-02
     393 0.6664E-02
     394 0.6941E-02
     395 0.7667E-02
     396 0.7867E-02
     397 0.9844E-02
     398 0.8341E-01
     399 0.1769E-01
     400 0.2113E-01
     401 0.1114E-01
     402 0.1068E-01
     403 0.1070E-01
     404 0.4747E-02
     405 0.1009E+00
     406 0.4361E-02
     407 0.5661E-02
     408 0.4046E-02
     409 0.3766E-02
     410 0.3934E-02
     411 0.2380E-02
     412 0.2486E-02
     413 0.2432E-02
     414 0.2376E-02
     415 0.2414E-02
     416 0.2462E-02
     417 0.2359E-02
     418 0.2364E-02
     419 0.2344E-02
     420 0.2352E-02
     421 0.2386E-02
     422 0.2599E-02
     423 0.2584E-02
     424 0.2716E-02
     425 0.2561E-02
     426 0.2534E-02
     427 0.2579E-02
     428 0.2660E-02
     429 0.2669E-02
     430 0.2698E-02
     431 0.3023E-02
     432 0.3331E-02
     433 0.3098E-02
     434 0.2989E-02
     435 0.2783E-02
     436 0.2448E-02
     437 0.2583E-02
     438 0.2596E-02
     439 0.2595E-02
     440 0.2588E-02
     441 0.2587E-02
     442 0.2593E-02
     443 0.2578E-02
     444 0.2573E-02
     445 0.2578E-02
     446 0.2607E-02
     447 0.2636E-02
     448 0.2704E-02
     449 0.2658E-02
     450 0.2720E-02
     451 0.3170E-02
     452 0.3099E-02
     453 0.2861E-02
     454 0.2909E-02
     455 0.2915E-02
     456 0.2468E-02
     457 0.2910E-02
     458 0.2677E-02
     459 0.2509E-02
     460 0.2515E-02
     461 0.2509E-02
     462 0.2502E-02
     463 0.2487E-02
     464 0.2473E-02
     465 0.2462E-02
     466 0.2500E-02
     467 0.2460E-02
     468 0.3384E-02
     469 0.4728E-02
     470 0.3544E-02
     471 0.3589E-02
     472 0.2639E-02
     473 0.2997E-02
     474 0.2714E-02
     475 0.2816E-02
     476 0.2830E-02
     477 0.3116E-02
     478 0.2867E-02
     479 0.2720E-02
     480 0.2724E-02
     481 0.2713E-02
     482 0.2743E-02
     483 0.2749E-02
     484 0.2870E-02
     485 0.2950E-02
     486 0.3046E-02
     487 0.3017E-02
     488 0.2919E-02
     489 0.3017E-02
     490 0.2920E-02
     491 0.2986E-02
     492 0.3327E-02
     493 0.2774E-02
     494 0.2762E-02
     495 0.3025E-02
     496 0.3028E-02
     497 0.3026E-02
     498 0.2978E-02
     499 0.2894E-02
     500 0.1045E-01
     501 0.1045E-01
NUMERICAL WARNING:: IterSolve: Failed convergence tolerances.
ComputeChange: NS (ITER=2) (NRM,RELC): ( 0.16291045E-02 0.13868969E-01 ) :: helmholtz equation
HelmholtzSolve: iter:    2 Assembly: (s)   65.94  131.56
HelmholtzSolve: iter:    2 Solve:    (s)  185.59  376.82
HelmholtzSolve: 
HelmholtzSolve: -------------------------------------
HelmholtzSolve:  Helmholtz iteration           3
HelmholtzSolve:  Frequency (Hz):    77.087100000000007
HelmholtzSolve: -------------------------------------
HelmholtzSolve: 
HelmholtzSolve: Starting Assembly
HelmholtzSolve: Assembly:
: .................... 58%
: ..............Assembly done
DefUtils::DefaultDirichletBCs: Setting Dirichlet boundary conditions
DefUtils::DefaultDirichletBCs: Dirichlet boundary conditions set
       1 0.5831E-02
       2 0.3088E-02
       3 0.3364E-02
       4 0.7482E-02
       5 0.2546E-02
       6 0.2559E-02
       7 0.2502E-02
       8 0.2593E-02
       9 0.2718E-02
      10 0.2185E-01
      11 0.5959E-02
      12 0.1777E-01
      13 0.2254E+00
      14 0.6848E-01
      15 0.1337E-01
      16 0.8078E-02
      17 0.1222E-01
      18 0.4015E-02
      19 0.3568E-02
      20 0.3152E-02
      21 0.3055E-02
      22 0.3018E-02
      23 0.3053E-02
      24 0.4234E-02
      25 0.3521E-02
      26 0.3190E-02
      27 0.3080E-02
      28 0.3097E-02
      29 0.3073E-02
      30 0.8181E-02
      31 0.8042E-02
      32 0.2142E-01
      33 0.1037E-01
      34 0.1146E-01
      35 0.1127E-01
      36 0.6930E-02
      37 0.6714E-02
      38 0.1773E-02
      39 0.2958E-02
      40 0.2224E-02
      41 0.2218E-02
      42 0.1767E-02
      43 0.1734E-02
      44 0.1732E-02
      45 0.1523E-02
      46 0.1561E-02
      47 0.1597E-02
      48 0.1679E-02
      49 0.1596E-02
      50 0.1615E-02
      51 0.1529E-02
      52 0.1389E-02
      53 0.1189E-02
      54 0.1093E-02
      55 0.1017E-02
      56 0.1014E-02
      57 0.1062E-02
      58 0.9979E-03
      59 0.1084E-02
      60 0.9937E-03
      61 0.9872E-03
      62 0.9465E-03
      63 0.9511E-03
      64 0.1101E-02
      65 0.1020E-02
      66 0.9463E-03
      67 0.9451E-03
      68 0.1042E-02
      69 0.9455E-03
      70 0.1463E-02
      71 0.9890E-03
      72 0.1089E-02
      73 0.2980E-02
      74 0.1023E-02
      75 0.1199E-02
      76 0.8339E-03
      77 0.1015E-02
      78 0.8392E-03
      79 0.8241E-03
      80 0.8794E-03
      81 0.6776E-03
      82 0.8203E-03
      83 0.7536E-03
      84 0.6884E-03
      85 0.6895E-03
      86 0.6894E-03
      87 0.6909E-03
      88 0.6952E-03
      89 0.7048E-03
      90 0.1123E-02
      91 0.7695E-03
      92 0.7553E-03
      93 0.7476E-03
      94 0.7492E-03
      95 0.7718E-03
      96 0.7514E-03
      97 0.7638E-03
      98 0.7737E-03
      99 0.7657E-03
     100 0.7573E-03
     101 0.7251E-03
     102 0.7208E-03
     103 0.7152E-03
     104 0.7130E-03
     105 0.7174E-03
     106 0.7275E-03
     107 0.7365E-03
     108 0.7290E-03
     109 0.7270E-03
     110 0.7979E-03
     111 0.8615E-03
     112 0.7680E-03
     113 0.7437E-03
     114 0.7695E-03
     115 0.7556E-03
     116 0.7507E-03
     117 0.7433E-03
     118 0.7685E-03
     119 0.9584E-03
     120 0.1751E-02
     121 0.1606E-02
     122 0.1404E-02
     123 0.7607E-03
     124 0.6909E-03
     125 0.7071E-03
     126 0.8231E-03
     127 0.7450E-03
     128 0.6404E-03
     129 0.6528E-03
     130 0.6496E-03
     131 0.7048E-03
     132 0.7123E-03
     133 0.6826E-03
     134 0.5698E-03
     135 0.5500E-03
     136 0.2109E-02
     137 0.6258E-03
     138 0.6151E-03
     139 0.5820E-03
     140 0.5914E-03
     141 0.6163E-03
     142 0.7091E-03
     143 0.6316E-03
     144 0.5698E-03
     145 0.5647E-03
     146 0.5190E-03
     147 0.5929E-03
     148 0.5030E-03
     149 0.5428E-03
     150 0.4515E-03
     151 0.4482E-03
     152 0.4479E-03
     153 0.4392E-03
     154 0.4555E-03
     155 0.4469E-03
     156 0.4457E-03
     157 0.4461E-03
     158 0.4963E-03
     159 0.4905E-03
     160 0.4763E-03
     161 0.4771E-03
     162 0.4801E-03
     163 0.5888E-03
     164 0.7393E-03
     165 0.6648E-03
     166 0.4881E-03
     167 0.4680E-03
     168 0.8767E-03
     169 0.3700E-03
     170 0.3892E-03
     171 0.3581E-03
     172 0.3573E-03
     173 0.3600E-03
     174 0.3944E-03
     175 0.3663E-03
     176 0.3692E-03
     177 0.3645E-03
     178 0.3775E-03
     179 0.3856E-03
     180 0.3712E-03
     181 0.3668E-03
     182 0.3618E-03
     183 0.4001E-03
     184 0.3734E-03
     185 0.3623E-03
     186 0.3628E-03
     187 0.3593E-03
     188 0.3528E-03
     189 0.3590E-03
     190 0.3553E-03
     191 0.3611E-03
     192 0.3504E-03
     193 0.3811E-03
     194 0.3670E-03
     195 0.3570E-03
     196 0.3419E-03
     197 0.3509E-03
     198 0.3256E-03
     199 0.3048E-03
     200 0.4428E-03
     201 0.4156E-03
     202 0.4733E-03
     203 0.4594E-03
     204 0.4278E-03
     205 0.4392E-03
     206 0.3852E-03
     207 0.3373E-03
     208 0.2595E-03
     209 0.2958E-03
     210 0.3059E-03
     211 0.3164E-03
     212 0.3201E-03
     213 0.3092E-03
     214 0.3111E-03
     215 0.2928E-03
     216 0.2413E-03
     217 0.2259E-03
     218 0.2357E-03
     219 0.2202E-03
     220 0.3434E-03
     221 0.2783E-03
     222 0.3055E-03
     223 0.4156E-03
     224 0.2763E-03
     225 0.2551E-03
     226 0.2548E-03
     227 0.2675E-03
     228 0.2467E-03
     229 0.2247E-03
     230 0.2979E-03
     231 0.3345E-03
     232 0.3173E-03
     233 0.4534E-03
     234 0.4558E-03
     235 0.4018E-03
     236 0.3019E-03
     237 0.3927E-03
     238 0.2113E-03
     239 0.2762E-03
     240 0.2126E-03
     241 0.4700E-03
     242 0.1400E-03
     243 0.1527E-03
     244 0.1558E-03
     245 0.1715E-03
     246 0.1528E-03
     247 0.1528E-03
     248 0.1848E-03
     249 0.1748E-03
     250 0.1739E-03
     251 0.1711E-03
     252 0.1642E-03
     253 0.1721E-03
     254 0.1704E-03
     255 0.1760E-03
     256 0.1947E-03
     257 0.2031E-03
     258 0.2914E-03
     259 0.1574E-03
     260 0.1701E-03
     261 0.1264E-03
     262 0.1214E-03
     263 0.1206E-03
     264 0.1201E-03
     265 0.1293E-03
     266 0.1203E-03
     267 0.1202E-03
     268 0.1200E-03
     269 0.1203E-03
     270 0.1204E-03
     271 0.1203E-03
     272 0.1203E-03
     273 0.1242E-03
     274 0.1229E-03
     275 0.1230E-03
     276 0.1228E-03
     277 0.1230E-03
     278 0.1240E-03
     279 0.1228E-03
     280 0.1229E-03
     281 0.1216E-03
     282 0.1229E-03
     283 0.1232E-03
     284 0.1232E-03
     285 0.1254E-03
     286 0.1328E-03
     287 0.1319E-03
     288 0.1252E-03
     289 0.1236E-03
     290 0.1258E-03
     291 0.1256E-03
     292 0.1260E-03
     293 0.1245E-03
     294 0.1296E-03
     295 0.1410E-03
     296 0.1221E-03
     297 0.1217E-03
     298 0.1215E-03
     299 0.1212E-03
     300 0.1223E-03
     301 0.1226E-03
     302 0.1194E-03
     303 0.1214E-03
     304 0.5175E-03
     305 0.1246E-03
     306 0.1242E-03
     307 0.1247E-03
     308 0.1244E-03
     309 0.1242E-03
     310 0.1235E-03
     311 0.1243E-03
     312 0.1248E-03
     313 0.1244E-03
     314 0.1228E-03
     315 0.1249E-03
     316 0.1241E-03
     317 0.1271E-03
     318 0.1251E-03
     319 0.1251E-03
     320 0.1248E-03
     321 0.1233E-03
     322 0.1240E-03
     323 0.1303E-03
     324 0.1199E-03
     325 0.1188E-03
     326 0.1205E-03
     327 0.1201E-03
     328 0.1182E-03
     329 0.1178E-03
     330 0.1173E-03
     331 0.1170E-03
     332 0.1170E-03
     333 0.1179E-03
     334 0.1151E-03
     335 0.1398E-03
     336 0.1184E-03
     337 0.1218E-03
     338 0.1207E-03
     339 0.1201E-03
     340 0.1157E-03
     341 0.1153E-03
     342 0.1166E-03
     343 0.1187E-03
     344 0.1184E-03
     345 0.1194E-03
     346 0.1197E-03
     347 0.1195E-03
     348 0.1193E-03
     349 0.1175E-03
     350 0.1152E-03
     351 0.1156E-03
     352 0.1156E-03
     353 0.1156E-03
     354 0.1154E-03
     355 0.1157E-03
     356 0.1154E-03
     357 0.1157E-03
     358 0.1155E-03
     359 0.1185E-03
     360 0.1188E-03
     361 0.1175E-03
     362 0.1167E-03
     363 0.1164E-03
     364 0.1167E-03
     365 0.1161E-03
     366 0.1163E-03
     367 0.1171E-03
     368 0.1165E-03
     369 0.1170E-03
     370 0.1159E-03
     371 0.1159E-03
     372 0.1293E-03
     373 0.1300E-03
     374 0.1294E-03
     375 0.1259E-03
     376 0.1248E-03
     377 0.1240E-03
     378 0.1249E-03
     379 0.1254E-03
     380 0.1256E-03
     381 0.1259E-03
     382 0.1529E-03
     383 0.1350E-03
     384 0.1323E-03
     385 0.1417E-03
     386 0.1400E-03
     387 0.2209E-03
     388 0.1625E-03
     389 0.1206E-03
     390 0.1654E-03
     391 0.1471E-03
     392 0.1875E-03
     393 0.2266E-03
     394 0.1615E-03
     395 0.1977E-03
     396 0.2913E-03
     397 0.2509E-03
     398 0.1781E-03
     399 0.1584E-03
     400 0.1503E-03
     401 0.1543E-03
     402 0.1513E-03
     403 0.1517E-03
     404 0.1442E-03
     405 0.1453E-03
     406 0.1685E-03
     407 0.1923E-03
     408 0.2222E-03
     409 0.2371E-03
     410 0.2392E-03
     411 0.2317E-03
     412 0.2289E-03
     413 0.3139E-03
     414 0.2997E-03
     415 0.3757E-03
     416 0.5769E-03
     417 0.2582E-03
     418 0.3348E-03
     419 0.7858E-03
     420 0.5375E-03
     421 0.5784E-03
     422 0.3807E-02
     423 0.2037E-02
     424 0.2971E-02
     425 0.1135E-02
     426 0.1579E-02
     427 0.9031E-03
     428 0.7094E-03
     429 0.3214E-03
     430 0.3072E-03
     431 0.2128E-03
     432 0.2170E-03
     433 0.2158E-03
     434 0.2296E-03
     435 0.2344E-03
     436 0.2426E-03
     437 0.2384E-03
     438 0.2281E-03
     439 0.1992E-03
     440 0.2349E-03
     441 0.2474E-03
     442 0.2625E-03
     443 0.2921E-03
     444 0.2462E-03
     445 0.2493E-03
     446 0.2377E-03
     447 0.3283E-03
     448 0.2513E-03
     449 0.2505E-03
     450 0.2510E-03
     451 0.3689E-03
     452 0.2954E-03
     453 0.2854E-03
     454 0.2375E-03
     455 0.2177E-03
     456 0.2153E-03
     457 0.3939E-03
     458 0.4412E-03
     459 0.2665E-03
     460 0.2620E-03
     461 0.2374E-03
     462 0.2657E-03
     463 0.2577E-03
     464 0.2530E-03
     465 0.2939E-03
     466 0.3035E-03
     467 0.3018E-03
     468 0.2994E-03
     469 0.3121E-03
     470 0.3088E-03
     471 0.3225E-03
     472 0.2730E-03
     473 0.2579E-03
     474 0.2620E-03
     475 0.2609E-03
     476 0.2716E-03
     477 0.2804E-03
     478 0.2792E-03
     479 0.2815E-03
     480 0.2080E-03
     481 0.2515E-03
     482 0.2546E-03
     483 0.2588E-03
     484 0.3357E-03
     485 0.2517E-03
     486 0.2483E-03
     487 0.2473E-03
     488 0.2317E-03
     489 0.2273E-03
     490 0.2209E-03
     491 0.2170E-03
     492 0.2141E-03
     493 0.2051E-03
     494 0.1990E-03
     495 0.1804E-03
     496 0.1839E-03
     497 0.2009E-03
     498 0.1954E-03
     499 0.1849E-03
     500 0.1741E-03
     501 0.1741E-03
NUMERICAL WARNING:: IterSolve: Failed convergence tolerances.
ComputeChange: NS (ITER=3) (NRM,RELC): ( 0.16405635E-02 0.70093131E-02 ) :: helmholtz equation
HelmholtzSolve: iter:    3 Assembly: (s)   35.17  166.72
HelmholtzSolve: iter:    3 Solve:    (s)  184.13  560.95
HelmholtzSolve: 
HelmholtzSolve: -------------------------------------
HelmholtzSolve:  Helmholtz iteration           4
HelmholtzSolve:  Frequency (Hz):    77.087100000000007
HelmholtzSolve: -------------------------------------
HelmholtzSolve: 
HelmholtzSolve: Starting Assembly
HelmholtzSolve: Assembly:
: .................... 57%
: ...............Assembly done
DefUtils::DefaultDirichletBCs: Setting Dirichlet boundary conditions
DefUtils::DefaultDirichletBCs: Dirichlet boundary conditions set
       1 0.8995E-03
       2 0.4789E-02
       3 0.1756E-01
       4 0.2437E-02
       5 0.1202E-02
       6 0.1204E-02
       7 0.2095E-02
       8 0.2292E-02
       9 0.4082E-02
      10 0.3853E-02
      11 0.7959E-03
      12 0.5812E-03
      13 0.5282E-03
      14 0.4985E-03
      15 0.6328E-03
      16 0.5763E-03
      17 0.5786E-03
      18 0.6285E-03
      19 0.7743E-03
      20 0.1008E-02
      21 0.1598E-02
      22 0.9631E-02
      23 0.1634E-02
      24 0.7721E-03
      25 0.5031E-03
      26 0.2912E-03
      27 0.2762E-03
      28 0.3181E-03
      29 0.2958E-03
      30 0.3546E-03
      31 0.3165E-03
      32 0.3511E-03
      33 0.4658E-03
      34 0.4429E-03
      35 0.4397E-03
      36 0.1264E-02
      37 0.1301E-02
      38 0.1202E-02
      39 0.1331E-02
      40 0.1126E-02
      41 0.1027E-02
      42 0.1077E-02
      43 0.1173E-02
      44 0.2326E-02
      45 0.1036E-02
      46 0.1485E-02
      47 0.1406E-02
      48 0.1666E-02
      49 0.4011E-02
      50 0.3868E-02
      51 0.8710E-02
      52 0.4234E-02
      53 0.3272E-02
      54 0.3163E-02
      55 0.3095E-02
      56 0.3305E-02
      57 0.3655E-02
      58 0.2895E-02
      59 0.2476E-02
      60 0.5196E-02
      61 0.8414E-02
      62 0.3191E-02
      63 0.3001E-02
      64 0.3344E-02
      65 0.3006E-02
      66 0.3101E-02
      67 0.3420E-02
      68 0.2710E-02
      69 0.2147E-02
      70 0.2226E-02
      71 0.1613E-02
      72 0.1456E-02
      73 0.1406E-02
      74 0.1102E-01
      75 0.1392E-02
      76 0.1613E-02
      77 0.1662E-02
      78 0.1742E-02
      79 0.1194E-02
      80 0.8211E-03
      81 0.7869E-03
      82 0.6009E-03
      83 0.4486E-03
      84 0.7618E-03
      85 0.5840E-03
      86 0.3914E-03
      87 0.4166E-03
      88 0.4258E-03
      89 0.4176E-03
      90 0.4384E-03
      91 0.3753E-03
      92 0.3611E-03
      93 0.3963E-03
      94 0.3431E-03
      95 0.5621E-03
      96 0.3747E-03
      97 0.4314E-03
      98 0.3925E-03
      99 0.3966E-03
     100 0.6612E-03
     101 0.3876E-03
     102 0.3594E-03
     103 0.3677E-03
     104 0.3565E-03
     105 0.3562E-03
     106 0.3557E-03
     107 0.7969E-03
     108 0.3623E-03
     109 0.3670E-03
     110 0.3726E-03
     111 0.3770E-03
     112 0.3845E-03
     113 0.3968E-03
     114 0.3902E-03
     115 0.2919E-02
     116 0.3423E-02
     117 0.9862E-03
     118 0.1001E-02
     119 0.5674E-03
     120 0.6028E-03
     121 0.4809E-03
     122 0.3080E-03
     123 0.3115E-03
     124 0.3122E-03
     125 0.3044E-03
     126 0.3042E-03
     127 0.2998E-03
     128 0.2857E-03
     129 0.2824E-03
     130 0.2829E-03
     131 0.4803E-03
     132 0.3952E-03
     133 0.2784E-03
     134 0.2397E-03
     135 0.2615E-03
     136 0.2649E-03
     137 0.2377E-03
     138 0.2618E-03
     139 0.2248E-03
     140 0.2224E-03
     141 0.2273E-03
     142 0.2308E-03
     143 0.2461E-03
     144 0.2287E-03
     145 0.2430E-03
     146 0.2450E-03
     147 0.2557E-03
     148 0.2757E-03
     149 0.2506E-03
     150 0.2481E-03
     151 0.2517E-03
     152 0.2495E-03
     153 0.2469E-03
     154 0.2391E-03
     155 0.4476E-03
     156 0.1347E-02
     157 0.5918E-03
     158 0.4914E-03
     159 0.4147E-03
     160 0.4129E-03
     161 0.4115E-03
     162 0.7431E-03
     163 0.2319E-03
     164 0.2216E-03
     165 0.5311E-03
     166 0.5292E-03
     167 0.1793E-03
     168 0.1489E-03
     169 0.1569E-03
     170 0.1421E-03
     171 0.1326E-03
     172 0.1195E-03
     173 0.1190E-03
     174 0.1143E-03
     175 0.1143E-03
     176 0.1148E-03
     177 0.1159E-03
     178 0.1106E-03
     179 0.1083E-03
     180 0.2335E-03
     181 0.2106E-03
     182 0.1778E-03
     183 0.1908E-03
     184 0.1866E-03
     185 0.1838E-03
     186 0.1928E-03
     187 0.1586E-03
     188 0.1572E-03
     189 0.1650E-03
     190 0.1552E-03
     191 0.1548E-03
     192 0.1506E-03
     193 0.1494E-03
     194 0.1475E-03
     195 0.2342E-03
     196 0.2174E-03
     197 0.1804E-03
     198 0.1813E-03
     199 0.1665E-03
     200 0.1662E-03
     201 0.1556E-03
     202 0.1528E-03
     203 0.1508E-03
     204 0.1509E-03
     205 0.1534E-03
     206 0.1525E-03
     207 0.1389E-03
     208 0.1300E-03
     209 0.1283E-03
     210 0.1253E-03
     211 0.1146E-03
     212 0.1552E-03
     213 0.1915E-03
     214 0.1884E-03
     215 0.1886E-03
     216 0.1962E-03
     217 0.1900E-03
     218 0.1871E-03
     219 0.1872E-03
     220 0.1346E-03
     221 0.1636E-03
     222 0.1141E-03
     223 0.1291E-03
     224 0.1209E-03
     225 0.1148E-03
     226 0.1140E-03
     227 0.1113E-03
     228 0.1333E-03
     229 0.1407E-03
     230 0.1428E-03
     231 0.1759E-03
     232 0.1115E-03
     233 0.8940E-04
     234 0.8847E-04
     235 0.1480E-03
     236 0.1130E-03
     237 0.9040E-04
     238 0.2362E-03
     239 0.2159E-03
     240 0.8265E-04
     241 0.8317E-04
     242 0.1005E-03
     243 0.1005E-03
     244 0.9211E-04
     245 0.1058E-03
     246 0.1197E-03
     247 0.1137E-03
     248 0.1191E-03
     249 0.1233E-03
     250 0.1359E-03
     251 0.1481E-03
     252 0.1134E-03
     253 0.1992E-03
     254 0.9104E-04
     255 0.2183E-03
     256 0.1476E-03
     257 0.2772E-03
     258 0.1212E-03
     259 0.1537E-03
     260 0.9010E-04
     261 0.8639E-04
     262 0.8634E-04
     263 0.1023E-03
     264 0.8603E-04
     265 0.8510E-04
     266 0.1190E-03
     267 0.9587E-04
     268 0.9908E-04
     269 0.9008E-04
     270 0.8824E-04
     271 0.8197E-04
     272 0.8399E-04
     273 0.8295E-04
     274 0.8238E-04
     275 0.8327E-04
     276 0.8565E-04
     277 0.8042E-04
     278 0.1812E-03
     279 0.1862E-03
     280 0.1287E-03
     281 0.1238E-03
     282 0.9576E-04
     283 0.9515E-04
     284 0.9652E-04
     285 0.8831E-04
     286 0.8080E-04
     287 0.9800E-04
     288 0.1120E-03
     289 0.9283E-04
     290 0.9005E-04
     291 0.9445E-04
     292 0.9323E-04
     293 0.9266E-04
     294 0.9993E-04
     295 0.1281E-03
     296 0.9092E-04
     297 0.9587E-04
     298 0.1722E-03
     299 0.7563E-04
     300 0.9617E-04
     301 0.9697E-04
     302 0.9568E-04
     303 0.8937E-04
     304 0.9000E-04
     305 0.1001E-03
     306 0.1195E-03
     307 0.9741E-04
     308 0.8853E-04
     309 0.9306E-04
     310 0.1142E-03
     311 0.8789E-04
     312 0.8718E-04
     313 0.9402E-04
     314 0.8574E-04
     315 0.8669E-04
     316 0.8325E-04
     317 0.8340E-04
     318 0.8281E-04
     319 0.8089E-04
     320 0.8633E-04
     321 0.8416E-04
     322 0.8277E-04
     323 0.8518E-04
     324 0.9389E-04
     325 0.9152E-04
     326 0.8972E-04
     327 0.8969E-04
     328 0.1079E-03
     329 0.1208E-03
     330 0.8662E-04
     331 0.8830E-04
     332 0.8164E-04
     333 0.9910E-04
     334 0.9056E-04
     335 0.9264E-04
     336 0.9485E-04
     337 0.9387E-04
     338 0.9376E-04
     339 0.6137E-04
     340 0.5683E-04
     341 0.6315E-04
     342 0.1259E-03
     343 0.1078E-03
     344 0.1086E-03
     345 0.8852E-04
     346 0.9988E-04
     347 0.1009E-03
     348 0.8852E-04
     349 0.8189E-04
     350 0.7007E-04
     351 0.1239E-03
     352 0.1026E-03
     353 0.6825E-04
     354 0.6522E-04
     355 0.5870E-04
     356 0.5843E-04
     357 0.5658E-04
     358 0.5751E-04
     359 0.5699E-04
     360 0.7832E-04
     361 0.1068E-03
     362 0.1839E-03
     363 0.7017E-04
     364 0.8244E-04
     365 0.7260E-04
     366 0.6627E-04
     367 0.4203E-04
     368 0.3725E-04
     369 0.3841E-04
     370 0.3813E-04
     371 0.3823E-04
     372 0.3820E-04
     373 0.3827E-04
     374 0.3665E-04
     375 0.3698E-04
     376 0.3680E-04
     377 0.3634E-04
     378 0.3602E-04
     379 0.3582E-04
     380 0.3512E-04
     381 0.3535E-04
     382 0.3527E-04
     383 0.3617E-04
     384 0.3610E-04
     385 0.3664E-04
     386 0.3780E-04
     387 0.3916E-04
     388 0.3715E-04
     389 0.3572E-04
     390 0.3644E-04
     391 0.3633E-04
     392 0.3779E-04
     393 0.3708E-04
     394 0.3664E-04
     395 0.3662E-04
     396 0.3535E-04
     397 0.3490E-04
     398 0.3302E-04
     399 0.3374E-04
     400 0.3283E-04
     401 0.3228E-04
     402 0.3227E-04
     403 0.3377E-04
     404 0.3274E-04
     405 0.3112E-04
     406 0.3110E-04
     407 0.3095E-04
     408 0.3101E-04
     409 0.3082E-04
     410 0.3101E-04
     411 0.3098E-04
     412 0.3100E-04
     413 0.3112E-04
     414 0.3112E-04
     415 0.3369E-04
     416 0.3139E-04
     417 0.3176E-04
     418 0.3147E-04
     419 0.3137E-04
     420 0.3102E-04
     421 0.3239E-04
     422 0.2908E-04
     423 0.3009E-04
     424 0.2717E-04
     425 0.2685E-04
     426 0.2661E-04
     427 0.2658E-04
     428 0.2667E-04
     429 0.2669E-04
     430 0.2676E-04
     431 0.2664E-04
     432 0.2651E-04
     433 0.2677E-04
     434 0.2689E-04
     435 0.2687E-04
     436 0.2701E-04
     437 0.2683E-04
     438 0.2676E-04
     439 0.2667E-04
     440 0.2814E-04
     441 0.2732E-04
     442 0.3480E-04
     443 0.3742E-04
     444 0.3415E-04
     445 0.3324E-04
     446 0.3244E-04
     447 0.3618E-04
     448 0.2988E-04
     449 0.2979E-04
     450 0.2948E-04
     451 0.3074E-04
     452 0.2951E-04
     453 0.2927E-04
     454 0.2863E-04
     455 0.2873E-04
     456 0.2874E-04
     457 0.2866E-04
     458 0.2846E-04
     459 0.2831E-04
     460 0.2852E-04
     461 0.4376E-04
     462 0.2205E-04
     463 0.2574E-04
     464 0.2604E-04
     465 0.2265E-04
     466 0.2403E-04
     467 0.2167E-04
     468 0.2392E-04
     469 0.2187E-04
     470 0.2103E-04
     471 0.2144E-04
     472 0.2396E-04
     473 0.2315E-04
     474 0.2368E-04
     475 0.2584E-04
     476 0.2797E-04
     477 0.2855E-04
     478 0.2461E-04
     479 0.2472E-04
     480 0.2467E-04
     481 0.2472E-04
     482 0.2470E-04
     483 0.2456E-04
     484 0.2471E-04
     485 0.2565E-04
     486 0.2509E-04
     487 0.2607E-04
     488 0.2762E-04
     489 0.2719E-04
     490 0.2543E-04
     491 0.2531E-04
     492 0.2527E-04
     493 0.2506E-04
     494 0.2517E-04
     495 0.2515E-04
     496 0.2517E-04
     497 0.2521E-04
     498 0.2502E-04
     499 0.2512E-04
     500 0.2468E-04
     501 0.2468E-04
NUMERICAL WARNING:: IterSolve: Failed convergence tolerances.
ComputeChange: NS (ITER=4) (NRM,RELC): ( 0.16399268E-02 0.38816670E-03 ) :: helmholtz equation
HelmholtzSolve: iter:    4 Assembly: (s)   35.39  202.11
HelmholtzSolve: iter:    4 Solve:    (s)  183.30  744.25
HelmholtzSolve: 
HelmholtzSolve: -------------------------------------
HelmholtzSolve:  Helmholtz iteration           5
HelmholtzSolve:  Frequency (Hz):    77.087100000000007
HelmholtzSolve: -------------------------------------
HelmholtzSolve: 
HelmholtzSolve: Starting Assembly
HelmholtzSolve: Assembly:
: .................... 59%
: .............Assembly done
DefUtils::DefaultDirichletBCs: Setting Dirichlet boundary conditions
DefUtils::DefaultDirichletBCs: Dirichlet boundary conditions set
       1 0.9465E-03
       2 0.8729E-03
       3 0.4082E-03
       4 0.1569E-03
       5 0.1529E-03
       6 0.1203E-03
       7 0.1188E-03
       8 0.1113E-03
       9 0.9890E-04
      10 0.6607E-04
      11 0.5911E-04
      12 0.1330E-03
      13 0.7709E-04
      14 0.8242E-04
      15 0.7056E-04
      16 0.6839E-04
      17 0.6542E-04
      18 0.1042E-03
      19 0.8809E-04
      20 0.8497E-04
      21 0.7406E-04
      22 0.4179E-04
      23 0.4060E-04
      24 0.3652E-04
      25 0.3103E-04
      26 0.2979E-04
      27 0.2609E-04
      28 0.2607E-04
      29 0.2297E-04
      30 0.2155E-04
      31 0.1120E-03
      32 0.6111E-04
      33 0.6408E-04
      34 0.3810E-04
      35 0.3634E-04
      36 0.1051E-03
      37 0.5688E-04
      38 0.3332E-04
      39 0.2847E-04
      40 0.3150E-04
      41 0.2681E-04
      42 0.2587E-04
      43 0.3084E-04
      44 0.3448E-04
      45 0.3591E-04
      46 0.3756E-04
      47 0.3761E-04
      48 0.3832E-04
      49 0.3881E-04
      50 0.5211E-04
      51 0.4287E-04
      52 0.3300E-04
      53 0.1014E-03
      54 0.3584E-04
      55 0.4174E-04
      56 0.2458E-03
      57 0.2102E-03
      58 0.2774E-03
      59 0.1525E-03
      60 0.1674E-03
      61 0.2475E-03
      62 0.4476E-03
      63 0.4368E-03
      64 0.7769E-03
      65 0.1155E-02
      66 0.8166E-03
      67 0.6965E-03
      68 0.1798E-03
      69 0.7013E-03
      70 0.8624E-03
      71 0.2748E-03
      72 0.1878E-03
      73 0.5181E-03
      74 0.6683E-04
      75 0.3707E-04
      76 0.3384E-04
      77 0.9752E-04
      78 0.3291E-04
      79 0.2342E-04
      80 0.2172E-04
      81 0.4520E-04
      82 0.2741E-04
      83 0.2531E-04
      84 0.1808E-04
      85 0.1356E-04
      86 0.1372E-04
      87 0.9933E-05
      88 0.1886E-04
      89 0.7072E-05
      90 0.5264E-05
      91 0.5729E-05
      92 0.5336E-05
      93 0.5194E-05
      94 0.5126E-05
      95 0.5257E-05
      96 0.5021E-05
      97 0.4827E-05
      98 0.4655E-05
      99 0.1121E-04
     100 0.7871E-05
     101 0.6440E-05
     102 0.6718E-05
     103 0.5700E-05
     104 0.6086E-05
     105 0.6870E-05
     106 0.1403E-04
     107 0.1326E-04
     108 0.1093E-04
     109 0.8471E-05
     110 0.7938E-05
     111 0.3651E-04
     112 0.2025E-04
     113 0.9343E-05
     114 0.8706E-05
     115 0.1769E-04
     116 0.2000E-04
     117 0.9117E-05
     118 0.7305E-05
     119 0.1096E-04
     120 0.7328E-05
     121 0.8545E-05
     122 0.1785E-04
     123 0.8930E-05
     124 0.9878E-05
     125 0.1334E-03
     126 0.3787E-04
     127 0.1483E-04
     128 0.1608E-04
     129 0.1498E-04
     130 0.1685E-04
     131 0.2980E-04
     132 0.1830E-04
     133 0.1304E-04
     134 0.1126E-04
     135 0.1499E-04
     136 0.9011E-05
     137 0.1246E-04
     138 0.8049E-05
     139 0.7267E-05
     140 0.9295E-05
     141 0.8316E-05
     142 0.6217E-05
     143 0.6466E-05
     144 0.6267E-05
     145 0.5894E-05
     146 0.5862E-05
     147 0.6720E-05
     148 0.6501E-05
     149 0.6885E-05
     150 0.9005E-05
     151 0.1262E-04
     152 0.1324E-04
     153 0.1019E-04
     154 0.9979E-05
     155 0.9444E-05
     156 0.1488E-04
     157 0.1057E-04
     158 0.7612E-05
     159 0.7143E-05
     160 0.5997E-05
     161 0.5953E-05
     162 0.9678E-05
     163 0.7347E-05
     164 0.4826E-05
     165 0.5302E-05
     166 0.4829E-05
     167 0.5250E-05
     168 0.6072E-05
     169 0.7062E-05
     170 0.5142E-05
     171 0.4519E-05
     172 0.4644E-05
     173 0.4409E-05
     174 0.4403E-05
     175 0.4236E-05
     176 0.4691E-05
     177 0.4952E-05
     178 0.5375E-05
     179 0.7609E-05
     180 0.9095E-05
     181 0.8826E-05
     182 0.1043E-04
     183 0.9501E-05
     184 0.1104E-04
     185 0.7837E-05
     186 0.7319E-05
     187 0.9105E-05
     188 0.8242E-05
     189 0.8374E-05
     190 0.8621E-05
     191 0.1024E-04
     192 0.8869E-05
     193 0.5734E-05
     194 0.4431E-05
     195 0.1636E-04
     196 0.5686E-04
     197 0.8594E-04
     198 0.6037E-04
     199 0.4637E-04
     200 0.1454E-04
     201 0.1284E-04
     202 0.9363E-05
     203 0.7484E-05
     204 0.7648E-05
     205 0.7945E-05
     206 0.9695E-05
     207 0.5500E-05
     208 0.4896E-05
     209 0.4856E-05
     210 0.4672E-05
     211 0.4523E-05
     212 0.4989E-05
     213 0.5137E-05
     214 0.4632E-05
     215 0.4694E-05
     216 0.6026E-05
     217 0.5171E-05
     218 0.6324E-05
     219 0.4888E-05
     220 0.5133E-05
     221 0.4798E-05
     222 0.4897E-05
     223 0.4903E-05
     224 0.5276E-05
     225 0.5001E-05
     226 0.6067E-05
     227 0.5030E-05
     228 0.5069E-05
     229 0.4364E-05
     230 0.5502E-05
     231 0.5565E-05
     232 0.5682E-05
     233 0.5729E-05
     234 0.4906E-05
     235 0.4997E-05
     236 0.7802E-05
     237 0.1686E-04
     238 0.4881E-05
     239 0.4989E-05
     240 0.5660E-05
     241 0.5683E-05
     242 0.4790E-05
     243 0.5151E-05
     244 0.5105E-05
     245 0.4946E-05
     246 0.4883E-05
     247 0.4909E-05
     248 0.4810E-05
     249 0.4945E-05
     250 0.4714E-05
     251 0.4397E-05
     252 0.4664E-05
     253 0.4457E-05
     254 0.4645E-05
     255 0.3101E-05
     256 0.4113E-05
     257 0.4120E-05
     258 0.4585E-05
     259 0.4673E-05
     260 0.7594E-05
     261 0.5026E-05
     262 0.4983E-05
     263 0.4489E-05
     264 0.4713E-05
     265 0.5968E-05
     266 0.7183E-05
     267 0.1590E-04
     268 0.6539E-05
     269 0.4780E-05
     270 0.4518E-05
     271 0.4437E-05
     272 0.5395E-05
     273 0.4796E-05
     274 0.5065E-05
     275 0.5014E-05
     276 0.5011E-05
     277 0.5196E-05
     278 0.5420E-05
     279 0.4593E-05
     280 0.4243E-05
     281 0.4360E-05
     282 0.4460E-05
     283 0.4600E-05
     284 0.4700E-05
     285 0.4797E-05
     286 0.4674E-05
     287 0.1102E-04
     288 0.8509E-05
     289 0.1285E-04
     290 0.4424E-04
     291 0.1178E-04
     292 0.7555E-05
     293 0.5543E-05
     294 0.6177E-05
     295 0.4664E-05
     296 0.4628E-05
     297 0.5138E-05
     298 0.5150E-05
     299 0.6985E-05
     300 0.7258E-05
     301 0.6392E-05
     302 0.5800E-05
     303 0.6193E-05
     304 0.5209E-05
     305 0.5822E-05
     306 0.6041E-05
     307 0.6029E-05
     308 0.5997E-05
     309 0.5876E-05
     310 0.6546E-05
     311 0.7342E-05
     312 0.1127E-04
     313 0.9864E-05
     314 0.9411E-05
     315 0.5757E-05
     316 0.9448E-05
     317 0.7665E-05
     318 0.7981E-05
     319 0.8019E-05
     320 0.9709E-05
     321 0.9618E-05
     322 0.1004E-04
     323 0.9493E-05
     324 0.1004E-04
     325 0.1007E-04
     326 0.1017E-04
     327 0.8877E-05
     328 0.8800E-05
     329 0.9037E-05
     330 0.9730E-05
     331 0.9192E-05
     332 0.1363E-04
     333 0.1465E-04
     334 0.1158E-04
     335 0.1013E-04
     336 0.1434E-04
     337 0.1255E-04
     338 0.1252E-04
     339 0.1211E-04
     340 0.1260E-04
     341 0.1312E-04
     342 0.1375E-04
     343 0.1746E-04
     344 0.1433E-04
     345 0.1355E-04
     346 0.1727E-04
     347 0.2750E-04
     348 0.1360E-04
     349 0.3106E-04
     350 0.1893E-04
     351 0.1517E-04
     352 0.1076E-04
     353 0.6097E-05
     354 0.5265E-05
     355 0.4728E-05
     356 0.4989E-05
     357 0.4937E-05
     358 0.6607E-05
     359 0.5147E-05
     360 0.6441E-05
     361 0.3768E-05
     362 0.7187E-05
     363 0.7084E-05
     364 0.7069E-05
     365 0.7077E-05
     366 0.6648E-05
     367 0.9166E-05
     368 0.1307E-04
     369 0.1101E-04
     370 0.1163E-04
     371 0.1101E-04
     372 0.1474E-04
     373 0.1688E-04
     374 0.1276E-04
     375 0.1988E-04
     376 0.1994E-04
     377 0.1420E-04
     378 0.6406E-05
     379 0.1172E-04
     380 0.7958E-05
     381 0.4635E-05
     382 0.4725E-05
     383 0.5374E-05
     384 0.5044E-05
     385 0.4065E-05
     386 0.3572E-05
     387 0.2564E-05
     388 0.2330E-05
     389 0.2036E-05
     390 0.2979E-05
     391 0.2423E-05
     392 0.2511E-05
     393 0.2782E-05
     394 0.2531E-05
     395 0.2618E-05
     396 0.2501E-05
     397 0.5494E-05
     398 0.2345E-05
     399 0.1710E-05
     400 0.1852E-05
     401 0.1877E-05
     402 0.1894E-05
     403 0.1960E-05
     404 0.1844E-05
     405 0.1940E-05
     406 0.2244E-05
     407 0.2353E-05
     408 0.2052E-05
     409 0.2521E-05
     410 0.1839E-05
     411 0.3241E-05
     412 0.2707E-05
     413 0.3646E-05
     414 0.3654E-05
     415 0.3571E-05
     416 0.1249E-05
     417 0.1625E-05
     418 0.1775E-05
     419 0.1649E-05
     420 0.1702E-05
     421 0.1928E-05
     422 0.1768E-05
     423 0.4422E-05
     424 0.5104E-05
     425 0.3386E-05
     426 0.4974E-05
     427 0.2664E-05
     428 0.2252E-05
     429 0.2138E-05
     430 0.2035E-05
     431 0.1895E-05
     432 0.2172E-05
     433 0.2096E-05
     434 0.2124E-05
     435 0.2149E-05
     436 0.2208E-05
     437 0.2229E-05
     438 0.2132E-05
     439 0.1834E-05
     440 0.1823E-05
     441 0.3615E-05
     442 0.3392E-05
     443 0.3358E-05
     444 0.3235E-05
     445 0.3016E-05
     446 0.3256E-05
     447 0.3223E-05
     448 0.3441E-05
     449 0.4187E-05
     450 0.1850E-05
     451 0.2207E-05
     452 0.1921E-05
     453 0.2138E-05
     454 0.2034E-05
     455 0.2105E-05
     456 0.2306E-05
     457 0.2195E-05
     458 0.1957E-05
     459 0.1876E-05
     460 0.1878E-05
     461 0.1874E-05
     462 0.1854E-05
     463 0.1821E-05
     464 0.1929E-05
     465 0.1971E-05
     466 0.1946E-05
     467 0.1864E-05
     468 0.1840E-05
     469 0.2622E-05
     470 0.2121E-05
     471 0.1981E-05
     472 0.2120E-05
     473 0.2174E-05
     474 0.3156E-05
     475 0.1930E-05
     476 0.1930E-05
     477 0.1911E-05
     478 0.1827E-05
     479 0.1845E-05
     480 0.1871E-05
     481 0.1813E-05
     482 0.1807E-05
     483 0.1807E-05
     484 0.1832E-05
     485 0.1813E-05
     486 0.1812E-05
     487 0.1823E-05
     488 0.1815E-05
     489 0.1818E-05
     490 0.1828E-05
     491 0.1880E-05
     492 0.1775E-05
     493 0.1777E-05
     494 0.1779E-05
     495 0.1793E-05
     496 0.1777E-05
     497 0.1777E-05
     498 0.1840E-05
     499 0.1794E-05
     500 0.1770E-05
     501 0.1770E-05
NUMERICAL WARNING:: IterSolve: Failed convergence tolerances.
ComputeChange: NS (ITER=5) (NRM,RELC): ( 0.16398342E-02 0.56461160E-04 ) :: helmholtz equation
HelmholtzSolve: iter:    5 Assembly: (s)   35.09  237.20
HelmholtzSolve: iter:    5 Solve:    (s)  179.78  924.03
HelmholtzSolve: 
HelmholtzSolve: -------------------------------------
HelmholtzSolve:  Helmholtz iteration           6
HelmholtzSolve:  Frequency (Hz):    77.087100000000007
HelmholtzSolve: -------------------------------------
HelmholtzSolve: 
HelmholtzSolve: Starting Assembly
HelmholtzSolve: Assembly:
: .................... 55%
: ...............Assembly done
DefUtils::DefaultDirichletBCs: Setting Dirichlet boundary conditions
DefUtils::DefaultDirichletBCs: Dirichlet boundary conditions set
       1 0.2055E-04
       2 0.4135E-05
       3 0.3244E-05
       4 0.5892E-05
       5 0.3194E-04
       6 0.2213E-03
       7 0.1558E-03
       8 0.4767E-05
       9 0.3724E-05
      10 0.6472E-05
      11 0.7837E-05
      12 0.1335E-04
      13 0.5010E-05
      14 0.4016E-05
      15 0.3818E-05
      16 0.3547E-05
      17 0.8681E-05
      18 0.3092E-05
      19 0.2913E-05
      20 0.2828E-05
      21 0.3036E-05
      22 0.3101E-05
      23 0.3229E-05
      24 0.3608E-05
      25 0.6857E-05
      26 0.5594E-05
      27 0.5469E-05
      28 0.2184E-04
      29 0.1123E-04
      30 0.1147E-03
      31 0.3618E-03
      32 0.2882E-04
      33 0.5854E-05
      34 0.4181E-05
      35 0.4144E-05
      36 0.5342E-05
      37 0.2966E-05
      38 0.3119E-05
      39 0.2937E-05
      40 0.3568E-05
      41 0.2960E-05
      42 0.4285E-05
      43 0.3124E-05
      44 0.2915E-05
      45 0.2602E-05
      46 0.6719E-05
      47 0.6839E-05
      48 0.1845E-04
      49 0.6829E-05
      50 0.5252E-05
      51 0.4472E-05
      52 0.4311E-05
      53 0.4375E-05
      54 0.4424E-05
      55 0.3543E-05
      56 0.3520E-05
      57 0.3900E-05
      58 0.3954E-05
      59 0.4434E-05
      60 0.4820E-05
      61 0.4533E-05
      62 0.4815E-05
      63 0.4780E-05
      64 0.4732E-05
      65 0.4365E-05
      66 0.4625E-05
      67 0.4790E-05
      68 0.4753E-05
      69 0.4638E-05
      70 0.4808E-05
      71 0.4559E-05
      72 0.4257E-05
      73 0.4100E-05
      74 0.4214E-05
      75 0.4237E-05
      76 0.4637E-05
      77 0.4154E-05
      78 0.5126E-05
      79 0.4664E-05
      80 0.4209E-05
      81 0.4427E-05
      82 0.5529E-05
      83 0.4565E-05
      84 0.4653E-05
      85 0.4277E-05
      86 0.6700E-05
      87 0.8133E-05
      88 0.1151E-04
      89 0.3274E-04
      90 0.1073E-04
      91 0.2354E-05
      92 0.2116E-05
      93 0.2016E-05
      94 0.1927E-05
      95 0.1789E-05
      96 0.1716E-05
      97 0.1538E-05
      98 0.1543E-05
      99 0.1494E-05
     100 0.1467E-05
     101 0.1464E-05
     102 0.1887E-05
     103 0.2065E-05
     104 0.1802E-05
     105 0.1828E-05
     106 0.1780E-05
     107 0.1615E-05
     108 0.1686E-05
     109 0.1746E-05
     110 0.1816E-05
     111 0.1745E-05
     112 0.1733E-05
     113 0.1844E-05
     114 0.1740E-05
     115 0.1822E-05
     116 0.1889E-05
     117 0.1703E-05
     118 0.1742E-05
     119 0.1721E-05
     120 0.1689E-05
     121 0.1646E-05
     122 0.1554E-05
     123 0.1553E-05
     124 0.1497E-05
     125 0.1563E-05
     126 0.1558E-05
     127 0.1465E-05
     128 0.1449E-05
     129 0.1425E-05
     130 0.2524E-05
     131 0.5698E-05
     132 0.2616E-05
     133 0.2452E-05
     134 0.3229E-05
     135 0.2909E-05
     136 0.2238E-05
     137 0.2246E-05
     138 0.2210E-05
     139 0.2096E-05
     140 0.2105E-05
     141 0.2005E-05
     142 0.1995E-05
     143 0.1979E-05
     144 0.1984E-05
     145 0.1951E-05
     146 0.1944E-05
     147 0.1956E-05
     148 0.1973E-05
     149 0.2050E-05
     150 0.2340E-05
     151 0.1040E-04
     152 0.1940E-05
     153 0.1990E-05
     154 0.2080E-05
     155 0.2045E-05
     156 0.2076E-05
     157 0.2370E-05
     158 0.2949E-05
     159 0.2589E-05
     160 0.2215E-05
     161 0.2379E-05
     162 0.3819E-05
     163 0.3937E-05
     164 0.2413E-05
     165 0.2413E-05
     166 0.2311E-05
     167 0.4718E-05
     168 0.3548E-05
     169 0.4696E-05
     170 0.1709E-05
     171 0.1606E-05
     172 0.1572E-05
     173 0.1595E-05
     174 0.1827E-05
     175 0.1570E-05
     176 0.1545E-05
     177 0.1545E-05
     178 0.1507E-05
     179 0.1757E-05
     180 0.1583E-05
     181 0.1580E-05
     182 0.1819E-05
     183 0.1658E-05
     184 0.1710E-05
     185 0.1715E-05
     186 0.1560E-05
     187 0.1568E-05
     188 0.1522E-05
     189 0.1689E-05
     190 0.4432E-05
     191 0.1434E-05
     192 0.1406E-05
     193 0.1510E-05
     194 0.1531E-05
     195 0.1469E-05
     196 0.3545E-05
     197 0.3572E-05
     198 0.1817E-05
     199 0.1373E-05
     200 0.1354E-05
     201 0.1335E-05
     202 0.1520E-05
     203 0.8240E-05
     204 0.1546E-05
     205 0.1809E-05
     206 0.3686E-05
     207 0.2113E-05
     208 0.1294E-05
     209 0.1496E-05
     210 0.1450E-05
     211 0.1577E-05
     212 0.1228E-05
     213 0.1215E-05
     214 0.1243E-05
     215 0.1394E-05
     216 0.1190E-05
     217 0.1302E-05
     218 0.1209E-05
     219 0.2925E-05
     220 0.7274E-05
     221 0.1594E-05
     222 0.1439E-05
     223 0.1625E-05
     224 0.1497E-05
     225 0.1467E-05
     226 0.1173E-05
     227 0.1281E-05
     228 0.1203E-05
     229 0.1075E-05
     230 0.1017E-05
     231 0.1064E-05
     232 0.1119E-05
     233 0.1104E-05
     234 0.1077E-05
     235 0.1039E-05
     236 0.1015E-05
     237 0.9785E-06
     238 0.9121E-06
     239 0.9100E-06
     240 0.9051E-06
     241 0.9013E-06
     242 0.8979E-06
     243 0.1067E-05
     244 0.7094E-06
     245 0.6185E-06
     246 0.6196E-06
     247 0.6112E-06
     248 0.6219E-06
     249 0.6049E-06
     250 0.5609E-06
     251 0.5142E-06
     252 0.5487E-06
     253 0.5605E-06
     254 0.5677E-06
     255 0.5330E-06
     256 0.5449E-06
     257 0.5511E-06
     258 0.6144E-06
     259 0.5396E-06
     260 0.6156E-06
     261 0.5285E-06
     262 0.4471E-06
     263 0.4409E-06
     264 0.3802E-06
     265 0.5463E-06
     266 0.5472E-06
     267 0.9576E-06
     268 0.9471E-06
     269 0.8698E-06
     270 0.9027E-06
     271 0.9468E-06
     272 0.8592E-06
     273 0.3992E-06
     274 0.3712E-05
     275 0.9832E-06
     276 0.3201E-06
     277 0.4614E-06
     278 0.3367E-06
     279 0.2676E-06
     280 0.2626E-06
     281 0.2626E-06
     282 0.2821E-06
     283 0.2630E-06
     284 0.2600E-06
     285 0.3737E-06
     286 0.2684E-06
     287 0.2593E-06
     288 0.2748E-06
     289 0.2693E-06
     290 0.2777E-06
     291 0.2799E-06
     292 0.2787E-06
     293 0.2813E-06
     294 0.2709E-06
     295 0.3109E-06
     296 0.2907E-06
     297 0.3030E-06
     298 0.2889E-06
     299 0.2961E-06
     300 0.3007E-06
     301 0.3044E-06
     302 0.2773E-06
     303 0.2124E-06
     304 0.2195E-06
     305 0.2390E-06
     306 0.2211E-06
     307 0.2205E-06
     308 0.2198E-06
     309 0.2192E-06
     310 0.2272E-06
     311 0.2490E-06
     312 0.2159E-06
     313 0.2186E-06
     314 0.2198E-06
     315 0.2160E-06
     316 0.2157E-06
     317 0.2149E-06
     318 0.2778E-06
     319 0.2113E-06
     320 0.2128E-06
     321 0.2082E-06
     322 0.2085E-06
     323 0.2085E-06
     324 0.2103E-06
     325 0.2342E-06
     326 0.2064E-06
     327 0.2108E-06
     328 0.2119E-06
     329 0.2096E-06
     330 0.2081E-06
     331 0.2099E-06
     332 0.2168E-06
     333 0.2120E-06
     334 0.2133E-06
     335 0.2119E-06
     336 0.2116E-06
     337 0.2128E-06
     338 0.2150E-06
     339 0.2689E-06
     340 0.3026E-06
     341 0.1921E-06
     342 0.1752E-06
     343 0.1871E-06
     344 0.1903E-06
     345 0.1870E-06
     346 0.1926E-06
     347 0.1821E-06
     348 0.1654E-06
     349 0.1703E-06
     350 0.2032E-06
     351 0.2014E-06
     352 0.1950E-06
     353 0.1771E-06
     354 0.2281E-06
     355 0.6219E-06
     356 0.1676E-05
     357 0.1924E-06
     358 0.1858E-06
     359 0.1740E-06
     360 0.1833E-06
     361 0.2173E-06
     362 0.1733E-06
     363 0.1765E-06
     364 0.1715E-06
     365 0.1702E-06
     366 0.1714E-06
     367 0.1705E-06
     368 0.1727E-06
     369 0.1752E-06
     370 0.1709E-06
     371 0.1724E-06
     372 0.1713E-06
     373 0.1695E-06
     374 0.2038E-06
     375 0.1786E-06
     376 0.1772E-06
     377 0.1898E-06
     378 0.1697E-06
     379 0.1696E-06
     380 0.1749E-06
     381 0.1689E-06
     382 0.1685E-06
     383 0.1807E-06
     384 0.1683E-06
     385 0.1759E-06
     386 0.1723E-06
     387 0.1768E-06
     388 0.1705E-06
     389 0.1633E-06
     390 0.1631E-06
     391 0.1643E-06
     392 0.1633E-06
     393 0.1639E-06
     394 0.1675E-06
     395 0.2055E-06
     396 0.1731E-06
     397 0.1722E-06
     398 0.1724E-06
     399 0.1871E-06
     400 0.1873E-06
     401 0.1766E-06
     402 0.1749E-06
     403 0.1786E-06
     404 0.1770E-06
     405 0.1786E-06
     406 0.1792E-06
     407 0.1874E-06
     408 0.1951E-06
     409 0.1907E-06
     410 0.1848E-06
     411 0.2028E-06
     412 0.1695E-06
     413 0.1998E-06
     414 0.1964E-06
     415 0.1956E-06
     416 0.1888E-06
     417 0.1939E-06
     418 0.1855E-06
     419 0.1920E-06
     420 0.1914E-06
     421 0.4085E-06
     422 0.2393E-06
     423 0.2113E-06
     424 0.2066E-06
     425 0.2843E-06
     426 0.2476E-06
     427 0.2344E-06
     428 0.2340E-06
     429 0.2301E-06
     430 0.2420E-06
     431 0.3064E-06
     432 0.3244E-06
     433 0.3422E-06
     434 0.3966E-06
     435 0.3898E-06
     436 0.4099E-06
     437 0.5570E-06
     438 0.3810E-06
     439 0.3738E-06
     440 0.3816E-06
     441 0.3615E-06
     442 0.3409E-06
     443 0.3272E-06
     444 0.3264E-06
     445 0.3446E-06
     446 0.3750E-06
     447 0.4941E-06
     448 0.5216E-06
     449 0.6258E-06
     450 0.4125E-06
     451 0.4914E-06
     452 0.4746E-06
     453 0.4098E-06
     454 0.3886E-06
     455 0.4039E-06
     456 0.4109E-06
     457 0.4118E-06
     458 0.4248E-06
     459 0.4232E-06
     460 0.6463E-06
     461 0.7944E-06
     462 0.3437E-06
     463 0.4487E-06
     464 0.3365E-06
     465 0.3000E-06
     466 0.3136E-06
     467 0.2870E-06
     468 0.2988E-06
     469 0.3093E-06
     470 0.3176E-06
     471 0.3226E-06
     472 0.2944E-06
     473 0.3206E-06
     474 0.2945E-06
     475 0.2986E-06
     476 0.3027E-06
     477 0.3019E-06
     478 0.3244E-06
     479 0.4167E-06
     480 0.4122E-06
     481 0.3250E-06
     482 0.3018E-06
     483 0.3007E-06
     484 0.2974E-06
     485 0.3302E-06
     486 0.4008E-06
     487 0.2994E-06
     488 0.3807E-06
     489 0.3614E-06
     490 0.2741E-06
     491 0.2620E-06
     492 0.2640E-06
     493 0.2820E-06
     494 0.3045E-06
     495 0.2402E-06
     496 0.2288E-06
     497 0.2282E-06
     498 0.2159E-06
     499 0.1072E-06
     500 0.8854E-07
     501 0.8854E-07
NUMERICAL WARNING:: IterSolve: Failed convergence tolerances.
ComputeChange: NS (ITER=6) (NRM,RELC): ( 0.16398386E-02 0.26372207E-05 ) :: helmholtz equation
HelmholtzSolve: iter:    6 Assembly: (s)   36.57  273.78
HelmholtzSolve: iter:    6 Solve:    (s)  178.33 1102.36
HelmholtzSolve: 
HelmholtzSolve: -------------------------------------
HelmholtzSolve:  Helmholtz iteration           7
HelmholtzSolve:  Frequency (Hz):    77.087100000000007
HelmholtzSolve: -------------------------------------
HelmholtzSolve: 
HelmholtzSolve: Starting Assembly
HelmholtzSolve: Assembly:
: .................... 55%
: ................Assembly done
DefUtils::DefaultDirichletBCs: Setting Dirichlet boundary conditions
DefUtils::DefaultDirichletBCs: Dirichlet boundary conditions set
       1 0.2924E-05
       2 0.1383E-05
       3 0.1217E-05
       4 0.1202E-05
       5 0.1054E-05
       6 0.1028E-05
       7 0.1241E-05
       8 0.1232E-05
       9 0.1394E-05
      10 0.1137E-05
      11 0.2162E-05
      12 0.3659E-05
      13 0.1391E-05
      14 0.1434E-05
      15 0.1380E-05
      16 0.1800E-05
      17 0.7944E-06
      18 0.8672E-06
      19 0.4742E-06
      20 0.3701E-06
      21 0.3467E-06
      22 0.3519E-06
      23 0.3201E-06
      24 0.2796E-06
      25 0.2550E-06
      26 0.4215E-06
      27 0.4300E-06
      28 0.4539E-06
      29 0.3931E-06
      30 0.3761E-06
      31 0.3588E-06
      32 0.3558E-06
      33 0.3208E-06
      34 0.3500E-06
      35 0.3657E-06
      36 0.2730E-06
      37 0.1707E-06
      38 0.1151E-06
      39 0.1379E-06
      40 0.1426E-06
      41 0.8506E-07
      42 0.9511E-07
      43 0.7561E-07
      44 0.7008E-07
      45 0.6817E-07
      46 0.6303E-07
      47 0.7108E-07
      48 0.6556E-07
      49 0.8069E-07
      50 0.6087E-07
      51 0.6195E-07
      52 0.6021E-07
      53 0.4900E-07
      54 0.5016E-07
      55 0.5141E-07
      56 0.5216E-07
      57 0.5086E-07
      58 0.4991E-07
      59 0.4663E-07
      60 0.4945E-07
      61 0.7039E-07
      62 0.3787E-07
      63 0.3809E-07
      64 0.5958E-07
      65 0.3608E-07
      66 0.4260E-07
      67 0.4421E-07
      68 0.3685E-07
      69 0.4146E-07
      70 0.3545E-07
      71 0.3531E-07
      72 0.3527E-07
      73 0.3628E-07
      74 0.3600E-07
      75 0.3653E-07
      76 0.3390E-07
      77 0.3610E-07
      78 0.3619E-07
      79 0.3315E-07
      80 0.3372E-07
      81 0.3377E-07
      82 0.1528E-06
      83 0.1468E-06
      84 0.2498E-06
      85 0.1721E-06
      86 0.6380E-07
      87 0.4568E-07
      88 0.6311E-07
      89 0.5348E-07
      90 0.4541E-07
      91 0.4124E-07
      92 0.5913E-07
      93 0.3769E-07
      94 0.3655E-07
      95 0.4558E-07
      96 0.3756E-07
      97 0.3896E-07
      98 0.3824E-07
      99 0.3663E-07
     100 0.3837E-07
     101 0.4011E-07
     102 0.6084E-07
     103 0.4942E-07
     104 0.4978E-07
     105 0.5324E-07
     106 0.5319E-07
     107 0.1429E-06
     108 0.8505E-07
     109 0.2414E-06
     110 0.7090E-07
     111 0.8529E-07
     112 0.9390E-07
     113 0.6003E-07
     114 0.6177E-07
     115 0.5250E-07
     116 0.5288E-07
     117 0.5225E-07
     118 0.4295E-07
     119 0.4110E-07
     120 0.3584E-07
     121 0.3577E-07
     122 0.3518E-07
     123 0.3709E-07
     124 0.3608E-07
     125 0.3600E-07
     126 0.3601E-07
     127 0.3894E-07
     128 0.1154E-06
     129 0.4470E-07
     130 0.3546E-07
     131 0.3462E-07
     132 0.3450E-07
     133 0.5347E-07
     134 0.3576E-07
     135 0.3440E-07
     136 0.3421E-07
     137 0.3318E-07
     138 0.3225E-07
     139 0.3538E-07
     140 0.3573E-07
     141 0.3744E-07
     142 0.3838E-07
     143 0.3731E-07
     144 0.4071E-07
     145 0.3772E-07
     146 0.6002E-07
     147 0.4017E-07
     148 0.5107E-07
     149 0.7236E-07
     150 0.5361E-07
     151 0.1549E-06
     152 0.1656E-06
     153 0.1081E-06
     154 0.8646E-07
     155 0.6755E-07
     156 0.9197E-07
     157 0.8040E-07
     158 0.4845E-07
     159 0.4600E-07
     160 0.4340E-07
     161 0.4627E-07
     162 0.4053E-07
     163 0.3072E-07
     164 0.3124E-07
     165 0.2494E-07
     166 0.2124E-07
     167 0.2013E-07
     168 0.3645E-07
     169 0.3605E-07
     170 0.3631E-07
     171 0.4139E-07
     172 0.4024E-07
     173 0.3349E-07
     174 0.4356E-07
     175 0.2609E-07
     176 0.2560E-07
     177 0.2585E-07
     178 0.2716E-07
     179 0.4113E-07
     180 0.3022E-07
     181 0.2507E-07
     182 0.1551E-07
     183 0.1524E-07
     184 0.1574E-07
     185 0.1483E-07
     186 0.1771E-07
     187 0.1665E-07
     188 0.1720E-07
     189 0.1695E-07
     190 0.1782E-07
     191 0.1660E-07
     192 0.1655E-07
     193 0.1719E-07
     194 0.1640E-07
     195 0.1562E-07
     196 0.1710E-07
     197 0.1774E-07
     198 0.1714E-07
     199 0.1752E-07
     200 0.1779E-07
     201 0.1830E-07
     202 0.1809E-07
     203 0.1659E-07
     204 0.1672E-07
     205 0.1613E-07
     206 0.1669E-07
     207 0.1651E-07
     208 0.1666E-07
     209 0.1683E-07
     210 0.1695E-07
     211 0.1763E-07
     212 0.1717E-07
     213 0.1688E-07
     214 0.1693E-07
     215 0.1702E-07
     216 0.1706E-07
     217 0.1735E-07
     218 0.1779E-07
     219 0.2857E-07
     220 0.3292E-07
     221 0.3668E-07
     222 0.4111E-07
     223 0.3473E-07
     224 0.2751E-07
     225 0.1992E-07
     226 0.1795E-07
     227 0.1993E-07
     228 0.1759E-07
     229 0.1754E-07
     230 0.1682E-07
     231 0.1747E-07
     232 0.1750E-07
     233 0.1699E-07
     234 0.1680E-07
     235 0.1816E-07
     236 0.1817E-07
     237 0.1803E-07
     238 0.1938E-07
     239 0.1755E-07
     240 0.1638E-07
     241 0.2177E-07
     242 0.1949E-07
     243 0.1781E-07
     244 0.3533E-07
     245 0.2961E-07
     246 0.3051E-07
     247 0.3227E-07
     248 0.2472E-07
     249 0.2455E-07
     250 0.2550E-07
     251 0.2996E-07
     252 0.1809E-07
     253 0.1736E-07
     254 0.1770E-07
     255 0.1722E-07
     256 0.2145E-07
     257 0.2465E-07
     258 0.1810E-07
     259 0.1857E-07
     260 0.1952E-07
     261 0.1758E-07
     262 0.1774E-07
     263 0.1721E-07
     264 0.1735E-07
     265 0.2056E-07
     266 0.1766E-07
     267 0.1696E-07
     268 0.1790E-07
     269 0.1505E-07
     270 0.1649E-07
     271 0.1587E-07
     272 0.1618E-07
     273 0.1646E-07
     274 0.1895E-07
     275 0.1742E-07
     276 0.1731E-07
     277 0.1703E-07
     278 0.1991E-07
     279 0.1836E-07
     280 0.1829E-07
     281 0.1669E-07
     282 0.2871E-07
     283 0.3273E-07
     284 0.5319E-07
     285 0.3707E-07
     286 0.2963E-07
     287 0.2751E-07
     288 0.2627E-07
     289 0.2619E-07
     290 0.2787E-07
     291 0.3278E-07
     292 0.2769E-07
     293 0.2825E-07
     294 0.2498E-07
     295 0.2732E-07
     296 0.2456E-07
     297 0.2278E-07
     298 0.2294E-07
     299 0.2343E-07
     300 0.2957E-07
     301 0.2905E-07
     302 0.2996E-07
     303 0.6585E-07
     304 0.3296E-07
     305 0.2769E-07
     306 0.2621E-07
     307 0.2297E-07
     308 0.1969E-07
     309 0.2026E-07
     310 0.3289E-07
     311 0.2089E-07
     312 0.3596E-07
     313 0.2240E-07
     314 0.2284E-07
     315 0.2247E-07
     316 0.2260E-07
     317 0.2263E-07
     318 0.2174E-07
     319 0.2111E-07
     320 0.2121E-07
     321 0.4581E-07
     322 0.2037E-07
     323 0.2475E-07
     324 0.1627E-07
     325 0.1678E-07
     326 0.1564E-07
     327 0.1537E-07
     328 0.1524E-07
     329 0.1465E-07
     330 0.1458E-07
     331 0.1438E-07
     332 0.1581E-07
     333 0.1499E-07
     334 0.1507E-07
     335 0.1613E-07
     336 0.1699E-07
     337 0.1663E-07
     338 0.1576E-07
     339 0.1551E-07
     340 0.1030E-07
     341 0.1002E-07
     342 0.9723E-08
     343 0.9515E-08
     344 0.1816E-07
     345 0.1872E-07
     346 0.3485E-07
     347 0.2546E-07
     348 0.1594E-07
     349 0.1573E-07
     350 0.1575E-07
     351 0.1603E-07
     352 0.1545E-07
     353 0.1505E-07
     354 0.1491E-07
     355 0.1729E-07
     356 0.1685E-07
     357 0.5913E-07
     358 0.1682E-07
     359 0.1539E-07
     360 0.1431E-07
     361 0.1404E-07
     362 0.1374E-07
     363 0.1361E-07
     364 0.1364E-07
     365 0.2481E-07
     366 0.2488E-07
     367 0.1932E-07
     368 0.2001E-07
     369 0.1492E-07
     370 0.1425E-07
     371 0.1403E-07
     372 0.1348E-07
     373 0.1408E-07
     374 0.1240E-07
     375 0.1111E-07
     376 0.1141E-07
     377 0.1153E-07
     378 0.1164E-07
     379 0.1165E-07
     380 0.1163E-07
     381 0.1165E-07
     382 0.1273E-07
     383 0.1413E-07
     384 0.1245E-07
     385 0.1199E-07
     386 0.1191E-07
     387 0.1185E-07
     388 0.1175E-07
     389 0.1151E-07
     390 0.1227E-07
     391 0.1169E-07
     392 0.1167E-07
     393 0.1164E-07
     394 0.1165E-07
     395 0.1175E-07
     396 0.1167E-07
     397 0.1162E-07
     398 0.1155E-07
     399 0.1154E-07
     400 0.1170E-07
     401 0.1446E-07
     402 0.1013E-07
     403 0.9868E-08
     404 0.9735E-08
     405 0.1177E-07
     406 0.1184E-07
     407 0.1343E-07
     408 0.1140E-07
     409 0.1088E-07
     410 0.1090E-07
     411 0.1117E-07
     412 0.1117E-07
     413 0.1144E-07
     414 0.1177E-07
     415 0.1245E-07
     416 0.1172E-07
     417 0.1136E-07
     418 0.1093E-07
     419 0.1138E-07
     420 0.1086E-07
     421 0.1080E-07
     422 0.1154E-07
     423 0.1590E-07
     424 0.1264E-07
     425 0.1148E-07
     426 0.1129E-07
     427 0.1114E-07
     428 0.1087E-07
     429 0.1152E-07
     430 0.1112E-07
     431 0.1007E-07
     432 0.9775E-08
     433 0.9662E-08
     434 0.9614E-08
     435 0.9033E-08
     436 0.9029E-08
     437 0.9159E-08
     438 0.9232E-08
     439 0.9035E-08
     440 0.8966E-08
     441 0.8817E-08
     442 0.8808E-08
     443 0.8792E-08
     444 0.8474E-08
     445 0.8541E-08
     446 0.8759E-08
     447 0.9325E-08
     448 0.9189E-08
     449 0.9312E-08
     450 0.1445E-07
     451 0.9949E-08
     452 0.9848E-08
     453 0.1013E-07
     454 0.9830E-08
     455 0.9851E-08
     456 0.9879E-08
     457 0.9830E-08
     458 0.9632E-08
     459 0.9817E-08
     460 0.9609E-08
     461 0.9603E-08
     462 0.9650E-08
     463 0.9567E-08
     464 0.9658E-08
     465 0.9606E-08
     466 0.9758E-08
     467 0.1043E-07
     468 0.9597E-08
     469 0.9561E-08
     470 0.1035E-07
     471 0.1015E-07
     472 0.9680E-08
     473 0.9475E-08
     474 0.9386E-08
     475 0.9441E-08
     476 0.9512E-08
     477 0.9392E-08
     478 0.9297E-08
     479 0.9361E-08
     480 0.1135E-07
     481 0.1122E-07
     482 0.9822E-08
     483 0.1018E-07
     484 0.1044E-07
     485 0.9328E-08
     486 0.1027E-07
     487 0.9128E-08
     488 0.8955E-08
     489 0.9386E-08
     490 0.9240E-08
     491 0.9290E-08
     492 0.8426E-08
     493 0.8637E-08
     494 0.8998E-08
     495 0.9007E-08
     496 0.9379E-08
     497 0.9065E-08
     498 0.9111E-08
     499 0.9301E-08
     500 0.9051E-08
     501 0.9051E-08
NUMERICAL WARNING:: IterSolve: Failed convergence tolerances.
ComputeChange: NS (ITER=7) (NRM,RELC): ( 0.16398389E-02 0.19803496E-06 ) :: helmholtz equation
HelmholtzSolve: iter:    7 Assembly: (s)   36.89  310.66
HelmholtzSolve: iter:    7 Solve:    (s)  170.60 1272.96
HelmholtzSolve: 
HelmholtzSolve: -------------------------------------
HelmholtzSolve:  Helmholtz iteration           8
HelmholtzSolve:  Frequency (Hz):    77.087100000000007
HelmholtzSolve: -------------------------------------
HelmholtzSolve: 
HelmholtzSolve: Starting Assembly
HelmholtzSolve: Assembly:
: .................... 56%
: ...............Assembly done
DefUtils::DefaultDirichletBCs: Setting Dirichlet boundary conditions
DefUtils::DefaultDirichletBCs: Dirichlet boundary conditions set
       1 0.2351E-06
       2 0.3340E-07
       3 0.3142E-07
       4 0.3104E-07
       5 0.2431E-06
       6 0.9752E-07
       7 0.6616E-07
       8 0.1078E-06
       9 0.2588E-07
      10 0.2201E-07
      11 0.1918E-07
      12 0.1499E-07
      13 0.1327E-07
      14 0.1357E-07
      15 0.1314E-07
      16 0.1320E-07
      17 0.1250E-07
      18 0.1180E-07
      19 0.1177E-07
      20 0.1003E-07
      21 0.1499E-07
      22 0.1046E-07
      23 0.1467E-07
      24 0.9531E-08
      25 0.9285E-08
      26 0.9258E-08
      27 0.9328E-08
      28 0.9325E-08
      29 0.9289E-08
      30 0.9009E-08
      31 0.1321E-07
      32 0.9078E-08
      33 0.8736E-08
      34 0.9188E-08
      35 0.1088E-07
      36 0.8312E-08
      37 0.8676E-08
      38 0.9448E-08
      39 0.8540E-08
      40 0.7745E-08
      41 0.8487E-08
      42 0.7474E-08
      43 0.7304E-08
      44 0.1034E-07
      45 0.7344E-08
      46 0.7277E-08
      47 0.7798E-08
      48 0.1167E-07
      49 0.1195E-07
      50 0.1075E-07
      51 0.1028E-07
      52 0.1015E-07
      53 0.1007E-07
      54 0.1012E-07
      55 0.8911E-08
      56 0.1059E-07
      57 0.9150E-08
      58 0.9342E-08
      59 0.9961E-08
      60 0.1001E-07
      61 0.9536E-08
      62 0.9586E-08
      63 0.9250E-08
      64 0.8940E-08
      65 0.1074E-07
      66 0.8908E-08
      67 0.9406E-08
      68 0.1118E-07
      69 0.1111E-07
      70 0.1008E-07
      71 0.1059E-07
      72 0.1234E-07
      73 0.1746E-07
      74 0.1723E-07
      75 0.1197E-06
      76 0.4721E-07
      77 0.1395E-07
      78 0.1260E-07
      79 0.9111E-08
      80 0.9329E-08
      81 0.1107E-07
      82 0.9433E-08
      83 0.9836E-08
      84 0.1093E-07
      85 0.1124E-07
      86 0.1442E-07
      87 0.1096E-07
      88 0.1082E-07
      89 0.1212E-07
      90 0.1105E-07
      91 0.1097E-07
      92 0.1119E-07
      93 0.1114E-07
      94 0.1125E-07
      95 0.1131E-07
      96 0.1270E-07
      97 0.1163E-07
      98 0.1189E-07
      99 0.1177E-07
     100 0.1142E-07
     101 0.1862E-07
     102 0.1221E-07
     103 0.1185E-07
     104 0.2285E-07
     105 0.1593E-07
     106 0.1601E-07
     107 0.1549E-07
     108 0.1524E-07
     109 0.1399E-07
     110 0.1422E-07
     111 0.1155E-07
     112 0.1202E-07
     113 0.1126E-07
     114 0.1158E-07
     115 0.1116E-07
     116 0.1125E-07
     117 0.1082E-07
     118 0.1167E-07
     119 0.1054E-07
     120 0.1044E-07
     121 0.1053E-07
     122 0.1071E-07
     123 0.1130E-07
     124 0.1217E-07
     125 0.1196E-07
     126 0.1164E-07
     127 0.1242E-07
     128 0.1194E-07
     129 0.1167E-07
     130 0.2080E-07
     131 0.1206E-07
     132 0.1084E-07
     133 0.1309E-07
     134 0.1344E-07
     135 0.1244E-07
     136 0.7286E-07
     137 0.5800E-07
     138 0.1524E-07
     139 0.1470E-07
     140 0.1996E-07
     141 0.3549E-07
     142 0.1727E-07
     143 0.1446E-07
     144 0.1539E-07
     145 0.1789E-07
     146 0.1662E-07
     147 0.1691E-07
     148 0.1624E-07
     149 0.8502E-07
     150 0.1325E-06
     151 0.8376E-07
     152 0.9826E-07
     153 0.1525E-07
     154 0.1504E-07
     155 0.1695E-07
     156 0.1813E-07
     157 0.1399E-07
     158 0.1393E-07
     159 0.2205E-07
     160 0.1399E-07
     161 0.1184E-07
     162 0.1162E-07
     163 0.2083E-07
     164 0.1238E-07
     165 0.1242E-07
     166 0.1502E-07
     167 0.1573E-07
     168 0.2834E-07
     169 0.2396E-07
     170 0.4291E-07
     171 0.4341E-07
     172 0.4112E-07
     173 0.5371E-07
     174 0.3064E-07
     175 0.2130E-07
     176 0.2106E-07
     177 0.2349E-07
     178 0.2259E-07
     179 0.2143E-07
     180 0.2191E-07
     181 0.2281E-07
     182 0.2337E-07
     183 0.2209E-07
     184 0.2219E-07
     185 0.2181E-07
     186 0.2208E-07
     187 0.2116E-07
     188 0.2163E-07
     189 0.1935E-07
     190 0.1931E-07
     191 0.1949E-07
     192 0.1889E-07
     193 0.1998E-07
     194 0.2022E-07
     195 0.2296E-07
     196 0.2070E-07
     197 0.1851E-07
     198 0.1773E-07
     199 0.1760E-07
     200 0.1758E-07
     201 0.4194E-07
     202 0.3725E-07
     203 0.3044E-07
     204 0.2918E-07
     205 0.2797E-07
     206 0.2792E-07
     207 0.2845E-07
     208 0.2871E-07
     209 0.2987E-07
     210 0.2886E-07
     211 0.2835E-07
     212 0.2831E-07
     213 0.2664E-07
     214 0.2689E-07
     215 0.2623E-07
     216 0.2794E-07
     217 0.2856E-07
     218 0.2949E-07
     219 0.2984E-07
     220 0.3349E-07
     221 0.3341E-07
     222 0.3432E-07
     223 0.4228E-07
     224 0.4489E-07
     225 0.2692E-07
     226 0.2162E-07
     227 0.2226E-07
     228 0.9345E-07
     229 0.5714E-07
     230 0.5549E-07
     231 0.5885E-07
     232 0.6225E-07
     233 0.1508E-06
     234 0.6269E-07
     235 0.3619E-07
     236 0.4695E-07
     237 0.5274E-07
     238 0.3309E-07
     239 0.3464E-07
     240 0.3220E-07
     241 0.6139E-07
     242 0.3278E-07
     243 0.3079E-07
     244 0.2941E-07
     245 0.2958E-07
     246 0.2277E-07
     247 0.2312E-07
     248 0.2624E-07
     249 0.2592E-07
     250 0.2318E-07
     251 0.2056E-07
     252 0.2767E-07
     253 0.1333E-07
     254 0.1151E-07
     255 0.1188E-07
     256 0.1180E-07
     257 0.1116E-07
     258 0.1147E-07
     259 0.1218E-07
     260 0.1419E-07
     261 0.1278E-07
     262 0.1165E-07
     263 0.1070E-07
     264 0.1041E-07
     265 0.1789E-07
     266 0.1275E-07
     267 0.1247E-07
     268 0.1466E-07
     269 0.9450E-08
     270 0.8278E-08
     271 0.7815E-08
     272 0.7990E-08
     273 0.7551E-08
     274 0.7525E-08
     275 0.8230E-08
     276 0.7759E-08
     277 0.7220E-08
     278 0.7143E-08
     279 0.7116E-08
     280 0.7096E-08
     281 0.6971E-08
     282 0.7157E-08
     283 0.7627E-08
     284 0.7192E-08
     285 0.7276E-08
     286 0.7159E-08
     287 0.6548E-08
     288 0.6583E-08
     289 0.6627E-08
     290 0.6445E-08
     291 0.6429E-08
     292 0.6541E-08
     293 0.6540E-08
     294 0.6591E-08
     295 0.6559E-08
     296 0.6555E-08
     297 0.7002E-08
     298 0.6814E-08
     299 0.7158E-08
     300 0.7208E-08
     301 0.7207E-08
     302 0.7430E-08
     303 0.7549E-08
     304 0.7387E-08
     305 0.1111E-07
     306 0.6499E-08
     307 0.1342E-07
     308 0.1197E-07
     309 0.7640E-08
     310 0.6288E-08
     311 0.1652E-07
     312 0.5050E-08
     313 0.3652E-08
     314 0.5856E-08
     315 0.5108E-08
     316 0.4773E-08
     317 0.4836E-08
     318 0.4834E-08
     319 0.5236E-08
     320 0.4975E-08
     321 0.4835E-08
     322 0.4714E-08
     323 0.4723E-08
     324 0.4692E-08
     325 0.4688E-08
     326 0.4656E-08
     327 0.4814E-08
     328 0.4810E-08
     329 0.4775E-08
     330 0.4735E-08
     331 0.4730E-08
     332 0.5524E-08
     333 0.5177E-08
     334 0.4931E-08
     335 0.5038E-08
     336 0.5006E-08
     337 0.5010E-08
     338 0.4996E-08
     339 0.5034E-08
     340 0.4979E-08
     341 0.6088E-08
     342 0.6383E-08
     343 0.6668E-08
     344 0.6407E-08
     345 0.7539E-08
     346 0.5336E-08
     347 0.4963E-08
     348 0.4939E-08
     349 0.5154E-08
     350 0.5086E-08
     351 0.5346E-08
     352 0.5487E-08
     353 0.5769E-08
     354 0.6273E-08
     355 0.6381E-08
     356 0.7429E-08
     357 0.7060E-08
     358 0.5885E-08
     359 0.5656E-08
     360 0.5396E-08
     361 0.5369E-08
     362 0.6656E-08
     363 0.4879E-08
     364 0.4357E-08
     365 0.4461E-08
     366 0.4473E-08
     367 0.4129E-08
     368 0.4022E-08
     369 0.4026E-08
     370 0.4155E-08
     371 0.4160E-08
     372 0.4183E-08
     373 0.4230E-08
     374 0.3719E-08
     375 0.2672E-08
     376 0.4533E-08
     377 0.4623E-08
     378 0.4518E-08
     379 0.4555E-08
     380 0.4642E-08
     381 0.4505E-08
     382 0.4621E-08
     383 0.4539E-08
     384 0.4482E-08
     385 0.4616E-08
     386 0.4842E-08
     387 0.5068E-08
     388 0.5338E-08
     389 0.4650E-08
     390 0.4766E-08
     391 0.4663E-08
     392 0.4771E-08
     393 0.4686E-08
     394 0.4672E-08
     395 0.4746E-08
     396 0.4955E-08
     397 0.5376E-08
     398 0.5306E-08
     399 0.5322E-08
     400 0.5174E-08
     401 0.5117E-08
     402 0.5093E-08
     403 0.4992E-08
     404 0.5072E-08
     405 0.5219E-08
     406 0.4755E-08
     407 0.4943E-08
     408 0.4901E-08
     409 0.4978E-08
     410 0.4905E-08
     411 0.6916E-08
     412 0.5884E-08
     413 0.4733E-08
     414 0.4857E-08
     415 0.4818E-08
     416 0.4826E-08
     417 0.4805E-08
     418 0.4681E-08
     419 0.4853E-08
     420 0.4924E-08
     421 0.4805E-08
     422 0.4730E-08
     423 0.4734E-08
     424 0.4736E-08
     425 0.4770E-08
     426 0.4756E-08
     427 0.4789E-08
     428 0.4713E-08
     429 0.4684E-08
     430 0.4690E-08
     431 0.4822E-08
     432 0.4775E-08
     433 0.4744E-08
     434 0.4706E-08
     435 0.5137E-08
     436 0.4961E-08
     437 0.4884E-08
     438 0.4858E-08
     439 0.4857E-08
     440 0.4836E-08
     441 0.4858E-08
     442 0.4843E-08
     443 0.4817E-08
     444 0.4775E-08
     445 0.4753E-08
     446 0.4724E-08
     447 0.5682E-08
     448 0.5270E-08
     449 0.4519E-08
     450 0.5198E-08
     451 0.4510E-08
     452 0.4602E-08
     453 0.4573E-08
     454 0.4556E-08
     455 0.4494E-08
     456 0.4897E-08
     457 0.5131E-08
     458 0.4826E-08
     459 0.4666E-08
     460 0.4680E-08
     461 0.4371E-08
     462 0.4968E-08
     463 0.4539E-08
     464 0.4028E-08
     465 0.4161E-08
     466 0.4202E-08
     467 0.4211E-08
     468 0.4139E-08
     469 0.3895E-08
     470 0.4203E-08
     471 0.3997E-08
     472 0.4051E-08
     473 0.4106E-08
     474 0.4370E-08
     475 0.4363E-08
     476 0.3934E-08
     477 0.3277E-08
     478 0.4515E-08
     479 0.4152E-08
     480 0.4138E-08
     481 0.4437E-08
     482 0.4354E-08
     483 0.3488E-08
     484 0.3474E-08
     485 0.3520E-08
     486 0.3343E-08
     487 0.4314E-08
     488 0.1295E-07
     489 0.9175E-08
     490 0.3756E-08
     491 0.3525E-08
     492 0.3506E-08
     493 0.3413E-08
     494 0.3411E-08
     495 0.3312E-08
     496 0.3286E-08
     497 0.3353E-08
     498 0.3898E-08
     499 0.3091E-08
     500 0.3661E-08
     501 0.3661E-08
NUMERICAL WARNING:: IterSolve: Failed convergence tolerances.
ComputeChange: NS (ITER=8) (NRM,RELC): ( 0.16398389E-02 0.40203211E-08 ) :: helmholtz equation
HelmholtzSolve: iter:    8 Assembly: (s)   37.38  348.04
HelmholtzSolve: iter:    8 Solve:    (s)  159.24 1432.20
ComputeChange: SS (ITER=1) (NRM,RELC): ( 0.16398389E-02  2.0000000     ) :: helmholtz equation
SingleSolver: Attempting to call solver
SingleSolver: Solver Equation string is: result output
ResultOutputSolver: -------------------------------------
ResultOutputSolve: Saving with prefix: case4
ResultOutputSolver: Creating list for saving - if not present
CreateListForSaving: Field Variables for Saving
ResultOutputSolver: Saving in unstructured VTK XML (.vtu) format
VtuOutputSolver: Saving results in VTK XML format with prefix: case4
VtuOutputSolver: Saving number of partitions: 1
ResultOutputSolver: -------------------------------------
ElmerSolver: *** Elmer Solver: ALL DONE ***
ElmerSolver: The end
SOLVER TOTAL TIME(CPU,REAL):      2463.20     2582.28
ELMER SOLVER FINISHED AT: 2017/08/19 00:48:53
