ELMER SOLVER (v 8.3) STARTED AT: 2017/08/19 00:05:51
ParCommInit:  Initialize #PEs:            1
MAIN: 
MAIN: =============================================================
MAIN: ElmerSolver finite element software, Welcome!
MAIN: This program is free software licensed under (L)GPL
MAIN: Copyright 1st April 1995 - , CSC - IT Center for Science Ltd.
MAIN: Webpage http://www.csc.fi/elmer, Email elmeradm@csc.fi
MAIN: Version: 8.3 (Rev: unknown, Compiled: 2017-08-17)
MAIN: =============================================================
MAIN: 
MAIN: 
MAIN: -------------------------------------
MAIN: Reading Model: case1.sif
LoadInputFile: Scanning input file: case1.sif
LoadInputFile: Loading input file: case1.sif
Model Input:  Unlisted keyword: [stress bodyforce 1 im] in section: [body force 1]
WARNING:: LoadInputFile: > Equation 3 < not used in any Body!
Loading user function library: [ResultOutputSolve]...[ResultOutputSolver_Init0]
Loading user function library: [StressSolve]...[StressSolver_Init0]
Loading user function library: [HelmholtzSolve]...[HelmholtzSolver_Init0]
LoadMesh: Base mesh name: ./.
LoadMesh: Elapsed REAL time:     0.6402 (s)
WARNING:: CheckTimer: Requesting time from non-existing timer: LoadMesh
WARNING:: ListFind: 
WARNING:: ListFind:  Requested property: [Stabilization Use Longest Element Edge], not found
WARNING:: ListFind: 
WARNING:: CheckTimer: Requesting time from non-existing timer: MeshStabParams
MAIN: -------------------------------------
Loading user function library: [ResultOutputSolve]...[ResultOutputSolver_Init]
Loading user function library: [ResultOutputSolve]...[ResultOutputSolver_bulk]
Loading user function library: [ResultOutputSolve]...[ResultOutputSolver]
Loading user function library: [StressSolve]...[StressSolver_Init]
Loading user function library: [StressSolve]...[StressSolver_bulk]
Loading user function library: [StressSolve]...[StressSolver]
OptimizeBandwidth: ---------------------------------------------------------
OptimizeBandwidth: Computing matrix structure for: linear elasticity...done.
OptimizeBandwidth: Half bandwidth without optimization: 19819
OptimizeBandwidth: 
OptimizeBandwidth: Bandwidth Optimization ...done.
OptimizeBandwidth: Half bandwidth after optimization: 1286
OptimizeBandwidth: ---------------------------------------------------------
Loading user function library: [HelmholtzSolve]...[HelmholtzSolver_Init]
Loading user function library: [HelmholtzSolve]...[HelmholtzSolver_bulk]
Loading user function library: [HelmholtzSolve]...[HelmholtzSolver]
OptimizeBandwidth: ---------------------------------------------------------
OptimizeBandwidth: Computing matrix structure for: helmholtz equation...done.
OptimizeBandwidth: Half bandwidth without optimization: 290711
OptimizeBandwidth: 
OptimizeBandwidth: Bandwidth Optimization ...done.
OptimizeBandwidth: Half bandwidth after optimization: 22938
OptimizeBandwidth: ---------------------------------------------------------
MAIN: 
MAIN: -------------------------------------
MAIN:  Steady state iteration:            1
MAIN: -------------------------------------
MAIN: 
SingleSolver: Attempting to call solver
SingleSolver: Solver Equation string is: linear elasticity
StressSolve: 
StressSolve: --------------------------------------------------
StressSolve: Solving displacements from linear elasticity model
StressSolve: --------------------------------------------------
StressSolve:  Displacemet iteration:            1
StressSolve: Starting assembly...
StressSolve: Assembly:
: .......Bulk assembly done
DefUtils::DefaultDirichletBCs: Setting Dirichlet boundary conditions
DefUtils::DefaultDirichletBCs: Dirichlet boundary conditions set
StressSolve: Set boundaries done
OptimizeBandwidth: ---------------------------------------------------------
OptimizeBandwidth: Computing matrix structure for: linear elasticity...done.
OptimizeBandwidth: Half bandwidth without optimization: 19819
OptimizeBandwidth: 
OptimizeBandwidth: Bandwidth Optimization ...done.
OptimizeBandwidth: Half bandwidth after optimization: 1286
OptimizeBandwidth: ---------------------------------------------------------
HarmonicSolve: 
HarmonicSolve: Frequency value:    0.100E+03
ComputeChange: NS (ITER=1) (NRM,RELC): ( 0.13357705E-07  2.0000000     ) :: linear elasticity
StressSolve:  Displacemet iteration:            2
StressSolve: Starting assembly...
StressSolve: Assembly:
: .......Bulk assembly done
DefUtils::DefaultDirichletBCs: Setting Dirichlet boundary conditions
DefUtils::DefaultDirichletBCs: Dirichlet boundary conditions set
StressSolve: Set boundaries done
HarmonicSolve: 
HarmonicSolve: Frequency value:    0.100E+03
ComputeChange: NS (ITER=2) (NRM,RELC): ( 0.13357705E-07  0.0000000     ) :: linear elasticity
StressSolver: Computing stresses for eigenmode: 1
StressSolver: ------------------------------------------
StressSolver: Starting Stress Computation
OptimizeBandwidth: ---------------------------------------------------------
OptimizeBandwidth: Computing matrix structure for: calculate stresses...done.
OptimizeBandwidth: Half bandwidth without optimization: 19819
OptimizeBandwidth: 
OptimizeBandwidth: Bandwidth Optimization ...done.
OptimizeBandwidth: Half bandwidth after optimization: 1286
OptimizeBandwidth: ---------------------------------------------------------
StressSolver: Solving for Stress(1,1)
StressSolver: Solving for Stress(1,2)
StressSolver: Solving for Stress(1,3)
StressSolver: Solving for Stress(2,2)
StressSolver: Solving for Stress(2,3)
StressSolver: Solving for Stress(3,3)
StressSolver: Finished Stress Computation
StressSolver: ------------------------------------------
StressSolver: ------------------------------------------
StressSolver: Starting Stress Computation
StressSolver: Solving for Stress(1,1)
SolveSystem: Solution trivially zero!
StressSolver: Solving for Stress(1,2)
SolveSystem: Solution trivially zero!
StressSolver: Solving for Stress(1,3)
SolveSystem: Solution trivially zero!
StressSolver: Solving for Stress(2,2)
SolveSystem: Solution trivially zero!
StressSolver: Solving for Stress(2,3)
SolveSystem: Solution trivially zero!
StressSolver: Solving for Stress(3,3)
SolveSystem: Solution trivially zero!
StressSolver: Finished Stress Computation
StressSolver: ------------------------------------------
StressSolver: All done
StressSolver: ------------------------------------------
ComputeChange: SS (ITER=1) (NRM,RELC): (  0.0000000      0.0000000     ) :: linear elasticity
SingleSolver: Attempting to call solver
SingleSolver: Solver Equation string is: helmholtz equation
HelmholtzSolve: 
HelmholtzSolve: -------------------------------------
HelmholtzSolve:  Helmholtz iteration           1
HelmholtzSolve:  Frequency (Hz):    100.00000000000000
HelmholtzSolve: -------------------------------------
HelmholtzSolve: 
HelmholtzSolve: Starting Assembly
HelmholtzSolve: Assembly:
: .................... 32%
: .................... 63%
: .................... 94%
: ....Assembly done
DefUtils::DefaultDirichletBCs: Setting Dirichlet boundary conditions
DefUtils::DefaultDirichletBCs: Dirichlet boundary conditions set
       1 0.5581E+00
       2 0.4335E+00
       3 0.4036E+00
       4 0.3802E+00
       5 0.3519E+00
       6 0.3366E+00
       7 0.3238E+00
       8 0.3092E+00
       9 0.2959E+00
      10 0.2835E+00
      11 0.2707E+00
      12 0.2578E+00
      13 0.2447E+00
      14 0.2320E+00
      15 0.2195E+00
      16 0.2081E+00
      17 0.1987E+00
      18 0.1901E+00
      19 0.1818E+00
      20 0.1742E+00
      21 0.1669E+00
      22 0.1599E+00
      23 0.1530E+00
      24 0.1465E+00
      25 0.1401E+00
      26 0.1338E+00
      27 0.1282E+00
      28 0.1231E+00
      29 0.1186E+00
      30 0.1148E+00
      31 0.1112E+00
      32 0.1078E+00
      33 0.1047E+00
      34 0.1020E+00
      35 0.9919E-01
      36 0.9693E-01
      37 0.9619E-01
      38 0.9254E-01
      39 0.9140E-01
      40 0.9090E-01
      41 0.9219E-01
      42 0.9081E-01
      43 0.9239E-01
      44 0.9261E-01
      45 0.9288E-01
      46 0.9603E-01
      47 0.9718E-01
      48 0.9629E-01
      49 0.1116E+00
      50 0.1094E+00
      51 0.1093E+00
      52 0.1334E+00
      53 0.1199E+00
      54 0.1267E+00
      55 0.1418E+00
      56 0.1487E+00
      57 0.1547E+00
      58 0.1668E+00
      59 0.1601E+00
      60 0.1824E+00
      61 0.1996E+00
      62 0.2743E+00
      63 0.2750E+00
      64 0.2623E+00
      65 0.2613E+00
      66 0.2739E+00
      67 0.3817E+00
      68 0.4363E+00
      69 0.4586E+00
      70 0.2545E+00
      71 0.6534E+00
      72 0.5142E+00
      73 0.3656E+00
      74 0.3840E+00
      75 0.3845E+00
      76 0.3595E+00
      77 0.1882E+00
      78 0.1552E+00
      79 0.1793E+00
      80 0.1799E+00
      81 0.1544E+00
      82 0.1465E+00
      83 0.1438E+00
      84 0.1232E+00
      85 0.1219E+00
      86 0.1059E+00
      87 0.1109E+00
      88 0.1093E+00
      89 0.1077E+00
      90 0.1028E+00
      91 0.1006E+00
      92 0.1022E+00
      93 0.9969E-01
      94 0.9762E-01
      95 0.9497E-01
      96 0.9582E-01
      97 0.9619E-01
      98 0.9537E-01
      99 0.8915E-01
     100 0.8880E-01
     101 0.8472E-01
     102 0.8189E-01
     103 0.8296E-01
     104 0.8563E-01
     105 0.9040E-01
     106 0.1028E+00
     107 0.7906E-01
     108 0.7791E-01
     109 0.7827E-01
     110 0.7654E-01
     111 0.7548E-01
     112 0.8026E-01
     113 0.7213E-01
     114 0.7366E-01
     115 0.7167E-01
     116 0.6943E-01
     117 0.6893E-01
     118 0.6741E-01
     119 0.6496E-01
     120 0.6316E-01
     121 0.6277E-01
     122 0.6284E-01
     123 0.6376E-01
     124 0.6185E-01
     125 0.6164E-01
     126 0.6093E-01
     127 0.6169E-01
     128 0.6222E-01
     129 0.6135E-01
     130 0.5895E-01
     131 0.5801E-01
     132 0.5180E-01
     133 0.6635E-01
     134 0.6431E-01
     135 0.6012E-01
     136 0.6082E-01
     137 0.6058E-01
     138 0.5871E-01
     139 0.5820E-01
     140 0.5647E-01
     141 0.5480E-01
     142 0.5798E-01
     143 0.5608E-01
     144 0.6520E-01
     145 0.5553E-01
     146 0.5725E-01
     147 0.5749E-01
     148 0.5477E-01
     149 0.5448E-01
     150 0.6880E-01
     151 0.6913E-01
     152 0.5906E-01
     153 0.5156E-01
     154 0.6680E-01
     155 0.6996E-01
     156 0.6433E-01
     157 0.6337E-01
     158 0.6279E-01
     159 0.6126E-01
     160 0.6194E-01
     161 0.6350E-01
     162 0.5351E-01
     163 0.4513E-01
     164 0.4273E-01
     165 0.4248E-01
     166 0.4900E-01
     167 0.5086E-01
     168 0.5766E-01
     169 0.5508E-01
     170 0.5632E-01
     171 0.5785E-01
     172 0.5432E-01
     173 0.5680E-01
     174 0.5776E-01
     175 0.5750E-01
     176 0.5984E-01
     177 0.6023E-01
     178 0.5404E-01
     179 0.5207E-01
     180 0.5138E-01
     181 0.5288E-01
     182 0.5772E-01
     183 0.5892E-01
     184 0.5628E-01
     185 0.5980E-01
     186 0.6671E-01
     187 0.6336E-01
     188 0.6066E-01
     189 0.4753E-01
     190 0.4737E-01
     191 0.5317E-01
     192 0.4860E-01
     193 0.4646E-01
     194 0.5898E-01
     195 0.5331E-01
     196 0.5355E-01
     197 0.5077E-01
     198 0.5632E-01
     199 0.4895E-01
     200 0.4725E-01
     201 0.1403E+00
     202 0.1058E+00
     203 0.1085E+00
     204 0.8499E-01
     205 0.8978E-01
     206 0.5585E-01
     207 0.5437E-01
     208 0.5688E-01
     209 0.5896E-01
     210 0.5689E-01
     211 0.5539E-01
     212 0.5391E-01
     213 0.5379E-01
     214 0.5352E-01
     215 0.5278E-01
     216 0.5603E-01
     217 0.5915E-01
     218 0.6152E-01
     219 0.5638E-01
     220 0.4700E-01
     221 0.4799E-01
     222 0.5519E-01
     223 0.5704E-01
     224 0.5615E-01
     225 0.5755E-01
     226 0.5664E-01
     227 0.6216E-01
     228 0.6371E-01
     229 0.6344E-01
     230 0.6109E-01
     231 0.5911E-01
     232 0.5888E-01
     233 0.5963E-01
     234 0.5299E-01
     235 0.8763E-01
     236 0.7266E-01
     237 0.7203E-01
     238 0.6609E-01
     239 0.7530E-01
     240 0.7294E-01
     241 0.7022E-01
     242 0.6040E-01
     243 0.1017E+00
     244 0.7329E-01
     245 0.5567E-01
     246 0.5593E-01
     247 0.5587E-01
     248 0.5549E-01
     249 0.5454E-01
     250 0.5803E-01
     251 0.5385E-01
     252 0.5312E-01
     253 0.5446E-01
     254 0.5213E-01
     255 0.5099E-01
     256 0.5332E-01
     257 0.5898E-01
     258 0.6254E-01
     259 0.6036E-01
     260 0.5817E-01
     261 0.6149E-01
     262 0.6223E-01
     263 0.5040E-01
     264 0.4948E-01
     265 0.4789E-01
     266 0.4844E-01
     267 0.4976E-01
     268 0.6002E-01
     269 0.5730E-01
     270 0.5627E-01
     271 0.5585E-01
     272 0.5569E-01
     273 0.5480E-01
     274 0.5697E-01
     275 0.5464E-01
     276 0.5429E-01
     277 0.5350E-01
     278 0.5625E-01
     279 0.5235E-01
     280 0.5114E-01
     281 0.5171E-01
     282 0.5004E-01
     283 0.5128E-01
     284 0.5646E-01
     285 0.5207E-01
     286 0.5620E-01
     287 0.6801E-01
     288 0.5717E-01
     289 0.5657E-01
     290 0.5183E-01
     291 0.5145E-01
     292 0.5131E-01
     293 0.4936E-01
     294 0.4959E-01
     295 0.4711E-01
     296 0.4654E-01
     297 0.4622E-01
     298 0.4618E-01
     299 0.4698E-01
     300 0.4659E-01
     301 0.4652E-01
     302 0.4618E-01
     303 0.4532E-01
     304 0.4488E-01
     305 0.4528E-01
     306 0.4656E-01
     307 0.4552E-01
     308 0.4465E-01
     309 0.4453E-01
     310 0.4441E-01
     311 0.4348E-01
     312 0.4627E-01
     313 0.4425E-01
     314 0.8104E-01
     315 0.4450E-01
     316 0.4449E-01
     317 0.4304E-01
     318 0.4259E-01
     319 0.4322E-01
     320 0.4183E-01
     321 0.4161E-01
     322 0.4082E-01
     323 0.4105E-01
     324 0.4096E-01
     325 0.4087E-01
     326 0.4079E-01
     327 0.4076E-01
     328 0.4139E-01
     329 0.4121E-01
     330 0.4219E-01
     331 0.4207E-01
     332 0.4133E-01
     333 0.4222E-01
     334 0.4295E-01
     335 0.4417E-01
     336 0.4076E-01
     337 0.4057E-01
     338 0.4055E-01
     339 0.4042E-01
     340 0.4069E-01
     341 0.6611E-01
     342 0.4935E-01
     343 0.4583E-01
     344 0.4510E-01
     345 0.5286E-01
     346 0.5471E-01
     347 0.5227E-01
     348 0.4730E-01
     349 0.5762E-01
     350 0.5607E-01
     351 0.5608E-01
     352 0.5084E-01
     353 0.5414E-01
     354 0.4783E-01
     355 0.4617E-01
     356 0.4613E-01
     357 0.4473E-01
     358 0.4743E-01
     359 0.6213E-01
     360 0.5180E-01
     361 0.4669E-01
     362 0.4698E-01
     363 0.4688E-01
     364 0.4823E-01
     365 0.5189E-01
     366 0.5586E-01
     367 0.8606E-01
     368 0.1019E+00
     369 0.6253E-01
     370 0.5329E-01
     371 0.5108E-01
     372 0.5075E-01
     373 0.5124E-01
     374 0.5114E-01
     375 0.5927E-01
     376 0.5643E-01
     377 0.5268E-01
     378 0.5040E-01
     379 0.5268E-01
     380 0.5083E-01
     381 0.5029E-01
     382 0.4871E-01
     383 0.4939E-01
     384 0.5465E-01
     385 0.1009E+00
     386 0.4592E-01
     387 0.4874E-01
     388 0.5124E-01
     389 0.5229E-01
     390 0.5352E-01
     391 0.5108E-01
     392 0.5140E-01
     393 0.5101E-01
     394 0.5149E-01
     395 0.5219E-01
     396 0.1051E+00
     397 0.9610E-01
     398 0.9780E-01
     399 0.6497E-01
     400 0.5880E-01
     401 0.5805E-01
     402 0.5752E-01
     403 0.5614E-01
     404 0.5564E-01
     405 0.5379E-01
     406 0.5119E-01
     407 0.5408E-01
     408 0.5751E-01
     409 0.5214E-01
     410 0.5461E-01
     411 0.5297E-01
     412 0.5084E-01
     413 0.5126E-01
     414 0.5212E-01
     415 0.5102E-01
     416 0.5170E-01
     417 0.5105E-01
     418 0.5089E-01
     419 0.5184E-01
     420 0.5120E-01
     421 0.4759E-01
     422 0.4565E-01
     423 0.4621E-01
     424 0.4623E-01
     425 0.4615E-01
     426 0.4626E-01
     427 0.4609E-01
     428 0.4579E-01
     429 0.4567E-01
     430 0.4584E-01
     431 0.4577E-01
     432 0.4580E-01
     433 0.4154E-01
     434 0.4121E-01
     435 0.4092E-01
     436 0.4090E-01
     437 0.4136E-01
     438 0.4195E-01
     439 0.4204E-01
     440 0.4214E-01
     441 0.4248E-01
     442 0.4248E-01
     443 0.4460E-01
     444 0.4399E-01
     445 0.5378E-01
     446 0.4145E-01
     447 0.4087E-01
     448 0.4171E-01
     449 0.3934E-01
     450 0.3777E-01
     451 0.4066E-01
     452 0.3906E-01
     453 0.3921E-01
     454 0.3913E-01
     455 0.4689E-01
     456 0.4385E-01
     457 0.3779E-01
     458 0.3387E-01
     459 0.3302E-01
     460 0.3620E-01
     461 0.3539E-01
     462 0.3569E-01
     463 0.3556E-01
     464 0.4051E-01
     465 0.3733E-01
     466 0.3679E-01
     467 0.3730E-01
     468 0.3602E-01
     469 0.3665E-01
     470 0.3532E-01
     471 0.3479E-01
     472 0.3551E-01
     473 0.3605E-01
     474 0.3484E-01
     475 0.3461E-01
     476 0.3451E-01
     477 0.3458E-01
     478 0.9836E-01
     479 0.5196E-01
     480 0.3283E-01
     481 0.3324E-01
     482 0.3362E-01
     483 0.3342E-01
     484 0.3365E-01
     485 0.3325E-01
     486 0.3357E-01
     487 0.3286E-01
     488 0.3249E-01
     489 0.3246E-01
     490 0.3298E-01
     491 0.3184E-01
     492 0.3034E-01
     493 0.3121E-01
     494 0.3110E-01
     495 0.2901E-01
     496 0.3217E-01
     497 0.2925E-01
     498 0.3037E-01
     499 0.2714E-01
     500 0.3784E-01
     501 0.3784E-01
NUMERICAL WARNING:: IterSolve: Failed convergence tolerances.
ComputeChange: NS (ITER=1) (NRM,RELC): ( 0.15717166E-02  2.0000000     ) :: helmholtz equation
HelmholtzSolve: iter:    1 Assembly: (s)   64.76   64.76
HelmholtzSolve: iter:    1 Solve:    (s)  192.70  192.70
HelmholtzSolve: 
HelmholtzSolve: -------------------------------------
HelmholtzSolve:  Helmholtz iteration           2
HelmholtzSolve:  Frequency (Hz):    100.00000000000000
HelmholtzSolve: -------------------------------------
HelmholtzSolve: 
HelmholtzSolve: Starting Assembly
HelmholtzSolve: Assembly:
: .................... 31%
: .................... 63%
: .................... 93%
: ....Assembly done
DefUtils::DefaultDirichletBCs: Setting Dirichlet boundary conditions
DefUtils::DefaultDirichletBCs: Dirichlet boundary conditions set
       1 0.8296E+00
       2 0.1997E+01
       3 0.5583E+00
       4 0.2650E+00
       5 0.5946E-01
       6 0.4823E-01
       7 0.4995E-01
       8 0.4736E-01
       9 0.5118E-01
      10 0.7492E-01
      11 0.8930E-01
      12 0.9575E-01
      13 0.2212E+00
      14 0.9415E-01
      15 0.8288E-01
      16 0.7534E-01
      17 0.7628E-01
      18 0.5535E-01
      19 0.4056E-01
      20 0.3960E-01
      21 0.3923E-01
      22 0.3882E-01
      23 0.3910E-01
      24 0.5101E-01
      25 0.5489E-01
      26 0.5254E-01
      27 0.6155E-01
      28 0.1211E+00
      29 0.9777E-01
      30 0.1305E+00
      31 0.1207E+00
      32 0.1856E+00
      33 0.1923E+00
      34 0.2349E+00
      35 0.2264E+00
      36 0.2041E+00
      37 0.1083E+00
      38 0.8316E-01
      39 0.7361E-01
      40 0.6576E-01
      41 0.6923E-01
      42 0.6378E-01
      43 0.7119E-01
      44 0.7442E-01
      45 0.6282E-01
      46 0.6203E-01
      47 0.5748E-01
      48 0.5802E-01
      49 0.4313E-01
      50 0.4098E-01
      51 0.5057E-01
      52 0.4638E-01
      53 0.3572E-01
      54 0.3046E-01
      55 0.2810E-01
      56 0.2778E-01
      57 0.2860E-01
      58 0.2753E-01
      59 0.2749E-01
      60 0.2738E-01
      61 0.2744E-01
      62 0.2719E-01
      63 0.2786E-01
      64 0.2903E-01
      65 0.2806E-01
      66 0.2693E-01
      67 0.3004E-01
      68 0.2912E-01
      69 0.2825E-01
      70 0.3399E-01
      71 0.2775E-01
      72 0.2333E-01
      73 0.2303E-01
      74 0.1266E+00
      75 0.2273E+00
      76 0.9049E-01
      77 0.3785E+00
      78 0.5357E-01
      79 0.5466E-01
      80 0.5368E-01
      81 0.5355E-01
      82 0.5473E-01
      83 0.5702E-01
      84 0.5050E-01
      85 0.4791E-01
      86 0.4835E-01
      87 0.9134E-01
      88 0.6919E-01
      89 0.5511E-01
      90 0.4728E-01
      91 0.4436E-01
      92 0.4346E-01
      93 0.5439E-01
      94 0.5993E-01
      95 0.4804E-01
      96 0.5467E-01
      97 0.5179E-01
      98 0.5074E-01
      99 0.4759E-01
     100 0.4414E-01
     101 0.4400E-01
     102 0.4070E-01
     103 0.4168E-01
     104 0.4077E-01
     105 0.3947E-01
     106 0.3926E-01
     107 0.4102E-01
     108 0.3844E-01
     109 0.3818E-01
     110 0.3821E-01
     111 0.4084E-01
     112 0.4084E-01
     113 0.4220E-01
     114 0.4087E-01
     115 0.4131E-01
     116 0.4146E-01
     117 0.4492E-01
     118 0.4527E-01
     119 0.4570E-01
     120 0.4594E-01
     121 0.4616E-01
     122 0.4575E-01
     123 0.4690E-01
     124 0.4604E-01
     125 0.4481E-01
     126 0.5067E-01
     127 0.4176E-01
     128 0.3828E-01
     129 0.3822E-01
     130 0.3805E-01
     131 0.3623E-01
     132 0.3752E-01
     133 0.3634E-01
     134 0.3567E-01
     135 0.3625E-01
     136 0.3528E-01
     137 0.3558E-01
     138 0.3547E-01
     139 0.5075E-01
     140 0.4724E-01
     141 0.4648E-01
     142 0.4716E-01
     143 0.4342E-01
     144 0.4834E-01
     145 0.7555E-01
     146 0.4033E-01
     147 0.3909E-01
     148 0.3597E-01
     149 0.3576E-01
     150 0.3463E-01
     151 0.3445E-01
     152 0.3439E-01
     153 0.3538E-01
     154 0.3981E-01
     155 0.3478E-01
     156 0.3270E-01
     157 0.3418E-01
     158 0.3041E-01
     159 0.3412E-01
     160 0.1357E+00
     161 0.6192E-01
     162 0.7351E-01
     163 0.5033E-01
     164 0.5180E-01
     165 0.4589E-01
     166 0.4337E-01
     167 0.3787E-01
     168 0.4164E-01
     169 0.3598E-01
     170 0.3634E-01
     171 0.3954E-01
     172 0.3939E-01
     173 0.3998E-01
     174 0.3706E-01
     175 0.3510E-01
     176 0.9396E-01
     177 0.6397E-01
     178 0.6276E-01
     179 0.6650E-01
     180 0.6586E-01
     181 0.6496E-01
     182 0.6350E-01
     183 0.6595E-01
     184 0.6386E-01
     185 0.6168E-01
     186 0.6319E-01
     187 0.6530E-01
     188 0.5962E-01
     189 0.5903E-01
     190 0.5729E-01
     191 0.5810E-01
     192 0.5216E-01
     193 0.6044E-01
     194 0.6761E-01
     195 0.5234E-01
     196 0.5477E-01
     197 0.5030E-01
     198 0.4831E-01
     199 0.4676E-01
     200 0.4697E-01
     201 0.4123E-01
     202 0.4486E-01
     203 0.3871E-01
     204 0.4812E-01
     205 0.6985E-01
     206 0.4790E-01
     207 0.4698E-01
     208 0.4709E-01
     209 0.5063E-01
     210 0.9210E-01
     211 0.7927E-01
     212 0.8245E-01
     213 0.1198E+00
     214 0.7654E-01
     215 0.7406E-01
     216 0.7172E-01
     217 0.5971E-01
     218 0.6231E-01
     219 0.6150E-01
     220 0.5897E-01
     221 0.5954E-01
     222 0.4877E-01
     223 0.5252E-01
     224 0.4768E-01
     225 0.5265E-01
     226 0.4750E-01
     227 0.4623E-01
     228 0.4676E-01
     229 0.4623E-01
     230 0.4676E-01
     231 0.5447E-01
     232 0.5288E-01
     233 0.5023E-01
     234 0.4772E-01
     235 0.4710E-01
     236 0.4439E-01
     237 0.4654E-01
     238 0.3971E-01
     239 0.3789E-01
     240 0.3432E-01
     241 0.3048E-01
     242 0.2899E-01
     243 0.2882E-01
     244 0.3048E-01
     245 0.2750E-01
     246 0.2794E-01
     247 0.2793E-01
     248 0.2851E-01
     249 0.2717E-01
     250 0.2802E-01
     251 0.2664E-01
     252 0.3431E-01
     253 0.3360E-01
     254 0.3343E-01
     255 0.3442E-01
     256 0.3355E-01
     257 0.3156E-01
     258 0.2670E-01
     259 0.2573E-01
     260 0.2302E-01
     261 0.2363E-01
     262 0.2316E-01
     263 0.2389E-01
     264 0.2658E-01
     265 0.2335E-01
     266 0.2316E-01
     267 0.2507E-01
     268 0.2505E-01
     269 0.1978E-01
     270 0.1898E-01
     271 0.1812E-01
     272 0.1662E-01
     273 0.1684E-01
     274 0.1910E-01
     275 0.1666E-01
     276 0.4554E-01
     277 0.1666E-01
     278 0.2439E-01
     279 0.1858E-01
     280 0.1004E-01
     281 0.1444E-01
     282 0.1409E-01
     283 0.1599E-01
     284 0.1298E-01
     285 0.1343E-01
     286 0.1533E-01
     287 0.1238E-01
     288 0.2149E-01
     289 0.2541E-01
     290 0.2152E-01
     291 0.1884E-01
     292 0.1933E-01
     293 0.1958E-01
     294 0.1877E-01
     295 0.1904E-01
     296 0.2417E-01
     297 0.2012E-01
     298 0.1844E-01
     299 0.2011E-01
     300 0.1951E-01
     301 0.1885E-01
     302 0.1847E-01
     303 0.2032E-01
     304 0.2006E-01
     305 0.1589E-01
     306 0.1532E-01
     307 0.1603E-01
     308 0.1608E-01
     309 0.1469E-01
     310 0.2126E-01
     311 0.1667E-01
     312 0.1640E-01
     313 0.1522E-01
     314 0.1513E-01
     315 0.1517E-01
     316 0.1292E-01
     317 0.1379E-01
     318 0.1187E-01
     319 0.1152E-01
     320 0.1194E-01
     321 0.1104E-01
     322 0.1129E-01
     323 0.1059E-01
     324 0.1146E-01
     325 0.1104E-01
     326 0.1023E-01
     327 0.1021E-01
     328 0.1024E-01
     329 0.1040E-01
     330 0.1047E-01
     331 0.1038E-01
     332 0.1043E-01
     333 0.1044E-01
     334 0.1040E-01
     335 0.1025E-01
     336 0.1011E-01
     337 0.1135E-01
     338 0.1059E-01
     339 0.1095E-01
     340 0.1077E-01
     341 0.1077E-01
     342 0.1558E-01
     343 0.1467E-01
     344 0.1449E-01
     345 0.1436E-01
     346 0.1455E-01
     347 0.1299E-01
     348 0.1197E-01
     349 0.1135E-01
     350 0.1114E-01
     351 0.1239E-01
     352 0.1205E-01
     353 0.1057E-01
     354 0.9957E-02
     355 0.9567E-02
     356 0.9539E-02
     357 0.9603E-02
     358 0.9597E-02
     359 0.9601E-02
     360 0.9596E-02
     361 0.9767E-02
     362 0.9910E-02
     363 0.1005E-01
     364 0.1190E-01
     365 0.1166E-01
     366 0.2995E-01
     367 0.1679E-01
     368 0.1642E-01
     369 0.7959E-02
     370 0.7401E-02
     371 0.7316E-02
     372 0.7601E-02
     373 0.7321E-02
     374 0.7259E-02
     375 0.7344E-02
     376 0.7534E-02
     377 0.9777E-02
     378 0.7752E-02
     379 0.7449E-02
     380 0.7503E-02
     381 0.7827E-02
     382 0.7607E-02
     383 0.8673E-02
     384 0.7918E-02
     385 0.7726E-02
     386 0.7907E-02
     387 0.8458E-02
     388 0.9034E-02
     389 0.7595E-02
     390 0.7481E-02
     391 0.7274E-02
     392 0.7277E-02
     393 0.7669E-02
     394 0.9013E-02
     395 0.8814E-02
     396 0.9622E-02
     397 0.9572E-02
     398 0.1052E-01
     399 0.8664E-02
     400 0.1708E-01
     401 0.1284E-01
     402 0.2252E-01
     403 0.7492E-02
     404 0.7605E-02
     405 0.6844E-02
     406 0.7497E-02
     407 0.7372E-02
     408 0.6855E-02
     409 0.6873E-02
     410 0.8623E-02
     411 0.7438E-02
     412 0.6720E-02
     413 0.1869E-01
     414 0.3099E-01
     415 0.1213E-01
     416 0.1085E-01
     417 0.1308E-01
     418 0.1344E-01
     419 0.1171E-01
     420 0.1012E-01
     421 0.6007E-02
     422 0.6991E-02
     423 0.7195E-02
     424 0.7526E-02
     425 0.7656E-02
     426 0.5874E-02
     427 0.6056E-02
     428 0.7024E-02
     429 0.9442E-02
     430 0.2112E-01
     431 0.8764E-02
     432 0.7603E-02
     433 0.6356E-02
     434 0.6348E-02
     435 0.1542E-01
     436 0.1125E-01
     437 0.1182E-01
     438 0.8366E-02
     439 0.7385E-02
     440 0.9153E-02
     441 0.9152E-02
     442 0.7565E-02
     443 0.6722E-02
     444 0.7932E-02
     445 0.7080E-02
     446 0.8637E-02
     447 0.1098E-01
     448 0.6429E-02
     449 0.6310E-02
     450 0.5941E-02
     451 0.5783E-02
     452 0.5713E-02
     453 0.5662E-02
     454 0.5654E-02
     455 0.5638E-02
     456 0.5626E-02
     457 0.5706E-02
     458 0.5384E-02
     459 0.5420E-02
     460 0.5457E-02
     461 0.5385E-02
     462 0.5513E-02
     463 0.5415E-02
     464 0.5410E-02
     465 0.5258E-02
     466 0.5359E-02
     467 0.5340E-02
     468 0.5304E-02
     469 0.5150E-02
     470 0.5129E-02
     471 0.5087E-02
     472 0.5588E-02
     473 0.5807E-02
     474 0.4224E-02
     475 0.4361E-02
     476 0.4296E-02
     477 0.4357E-02
     478 0.4381E-02
     479 0.4394E-02
     480 0.4365E-02
     481 0.4311E-02
     482 0.4386E-02
     483 0.4393E-02
     484 0.4369E-02
     485 0.4379E-02
     486 0.4374E-02
     487 0.4811E-02
     488 0.4798E-02
     489 0.4461E-02
     490 0.4529E-02
     491 0.4519E-02
     492 0.5287E-02
     493 0.4348E-02
     494 0.4341E-02
     495 0.4344E-02
     496 0.4302E-02
     497 0.4332E-02
     498 0.4353E-02
     499 0.4441E-02
     500 0.4241E-02
     501 0.4241E-02
NUMERICAL WARNING:: IterSolve: Failed convergence tolerances.
ComputeChange: NS (ITER=2) (NRM,RELC): ( 0.15878998E-02 0.10243789E-01 ) :: helmholtz equation
HelmholtzSolve: iter:    2 Assembly: (s)   65.10  129.86
HelmholtzSolve: iter:    2 Solve:    (s)  184.62  377.32
HelmholtzSolve: 
HelmholtzSolve: -------------------------------------
HelmholtzSolve:  Helmholtz iteration           3
HelmholtzSolve:  Frequency (Hz):    100.00000000000000
HelmholtzSolve: -------------------------------------
HelmholtzSolve: 
HelmholtzSolve: Starting Assembly
HelmholtzSolve: Assembly:
: .................... 58%
: ..............Assembly done
DefUtils::DefaultDirichletBCs: Setting Dirichlet boundary conditions
DefUtils::DefaultDirichletBCs: Dirichlet boundary conditions set
       1 0.3885E-01
       2 0.2193E-01
       3 0.6282E-02
       4 0.6054E-02
       5 0.6127E-02
       6 0.8920E-02
       7 0.7932E-02
       8 0.7550E-02
       9 0.6311E-02
      10 0.6101E-02
      11 0.5946E-02
      12 0.6248E-02
      13 0.5934E-02
      14 0.5597E-02
      15 0.6078E-02
      16 0.9450E-02
      17 0.1163E-01
      18 0.3803E-01
      19 0.1674E-01
      20 0.1208E-01
      21 0.1295E-01
      22 0.1525E-01
      23 0.7400E-02
      24 0.7392E-02
      25 0.9437E-02
      26 0.8638E-02
      27 0.7663E-02
      28 0.6818E-02
      29 0.5860E-02
      30 0.5806E-02
      31 0.1173E-01
      32 0.1118E-01
      33 0.6459E-02
      34 0.5542E-02
      35 0.3515E-02
      36 0.3015E-02
      37 0.2994E-02
      38 0.2734E-02
      39 0.3262E-02
      40 0.1158E-01
      41 0.2524E-02
      42 0.2489E-02
      43 0.2650E-02
      44 0.3195E-02
      45 0.2931E-02
      46 0.2895E-02
      47 0.2960E-02
      48 0.2734E-02
      49 0.2457E-02
      50 0.2465E-02
      51 0.2592E-02
      52 0.2824E-02
      53 0.2483E-02
      54 0.2734E-02
      55 0.2344E-02
      56 0.2487E-02
      57 0.2243E-02
      58 0.2232E-02
      59 0.2241E-02
      60 0.2221E-02
      61 0.2437E-02
      62 0.4413E-02
      63 0.4813E-02
      64 0.2836E-02
      65 0.2154E-02
      66 0.2171E-02
      67 0.2151E-02
      68 0.2109E-02
      69 0.2089E-02
      70 0.2556E-02
      71 0.2165E-02
      72 0.2270E-02
      73 0.2403E-02
      74 0.2130E-02
      75 0.2107E-02
      76 0.2035E-02
      77 0.2061E-02
      78 0.2048E-02
      79 0.2375E-02
      80 0.2181E-02
      81 0.2118E-02
      82 0.2146E-02
      83 0.2806E-02
      84 0.2313E-02
      85 0.2340E-02
      86 0.8788E-02
      87 0.5982E-02
      88 0.4491E-02
      89 0.6096E-02
      90 0.4778E-02
      91 0.3357E-02
      92 0.2275E-02
      93 0.2031E-02
      94 0.1994E-02
      95 0.1928E-02
      96 0.1913E-02
      97 0.1908E-02
      98 0.1902E-02
      99 0.2678E-02
     100 0.1773E-02
     101 0.1657E-02
     102 0.1657E-02
     103 0.1636E-02
     104 0.1293E-02
     105 0.1451E-02
     106 0.1227E-02
     107 0.1232E-02
     108 0.1184E-02
     109 0.1088E-02
     110 0.2257E-02
     111 0.1558E-02
     112 0.1520E-02
     113 0.1664E-02
     114 0.1006E-02
     115 0.9974E-03
     116 0.9603E-03
     117 0.9439E-03
     118 0.9414E-03
     119 0.9233E-03
     120 0.9311E-03
     121 0.9328E-03
     122 0.2659E-02
     123 0.7185E-02
     124 0.6184E-02
     125 0.2452E-02
     126 0.2617E-02
     127 0.4526E-02
     128 0.8443E-03
     129 0.6451E-03
     130 0.6592E-03
     131 0.6073E-03
     132 0.5468E-03
     133 0.5154E-03
     134 0.5144E-03
     135 0.5142E-03
     136 0.5133E-03
     137 0.5218E-03
     138 0.5590E-03
     139 0.6237E-03
     140 0.5359E-03
     141 0.5177E-03
     142 0.5182E-03
     143 0.5181E-03
     144 0.5256E-03
     145 0.5234E-03
     146 0.5181E-03
     147 0.5236E-03
     148 0.5081E-03
     149 0.6169E-03
     150 0.6974E-03
     151 0.5778E-03
     152 0.6257E-03
     153 0.6078E-03
     154 0.6105E-03
     155 0.5875E-03
     156 0.6048E-03
     157 0.6787E-03
     158 0.6875E-03
     159 0.6332E-03
     160 0.6184E-03
     161 0.5939E-03
     162 0.6918E-03
     163 0.6187E-03
     164 0.6821E-03
     165 0.8750E-03
     166 0.6309E-03
     167 0.7349E-03
     168 0.1220E-02
     169 0.6604E-03
     170 0.7681E-03
     171 0.7062E-03
     172 0.7393E-03
     173 0.6243E-03
     174 0.6280E-03
     175 0.6268E-03
     176 0.6239E-03
     177 0.6155E-03
     178 0.6095E-03
     179 0.6091E-03
     180 0.5972E-03
     181 0.5938E-03
     182 0.5978E-03
     183 0.5764E-03
     184 0.5763E-03
     185 0.5801E-03
     186 0.5880E-03
     187 0.5812E-03
     188 0.5840E-03
     189 0.5838E-03
     190 0.5838E-03
     191 0.5833E-03
     192 0.5833E-03
     193 0.5832E-03
     194 0.5849E-03
     195 0.5839E-03
     196 0.5871E-03
     197 0.5829E-03
     198 0.5879E-03
     199 0.5869E-03
     200 0.5836E-03
     201 0.5792E-03
     202 0.5771E-03
     203 0.5772E-03
     204 0.6055E-03
     205 0.6052E-03
     206 0.6049E-03
     207 0.5987E-03
     208 0.6063E-03
     209 0.5994E-03
     210 0.5982E-03
     211 0.6018E-03
     212 0.5943E-03
     213 0.5905E-03
     214 0.5866E-03
     215 0.5884E-03
     216 0.5896E-03
     217 0.6549E-03
     218 0.6154E-03
     219 0.7750E-03
     220 0.8371E-03
     221 0.7227E-03
     222 0.6311E-03
     223 0.7548E-03
     224 0.7471E-03
     225 0.6254E-03
     226 0.6441E-03
     227 0.5985E-03
     228 0.8110E-03
     229 0.5278E-03
     230 0.5342E-03
     231 0.5320E-03
     232 0.5319E-03
     233 0.5146E-03
     234 0.5122E-03
     235 0.5321E-03
     236 0.5857E-03
     237 0.5379E-03
     238 0.5063E-03
     239 0.4947E-03
     240 0.4942E-03
     241 0.5079E-03
     242 0.5210E-03
     243 0.5145E-03
     244 0.5085E-03
     245 0.5076E-03
     246 0.5114E-03
     247 0.5184E-03
     248 0.5511E-03
     249 0.5322E-03
     250 0.5738E-03
     251 0.5349E-03
     252 0.5543E-03
     253 0.5370E-03
     254 0.5360E-03
     255 0.5344E-03
     256 0.5354E-03
     257 0.5411E-03
     258 0.5575E-03
     259 0.6084E-03
     260 0.5790E-03
     261 0.5464E-03
     262 0.4774E-03
     263 0.5135E-03
     264 0.5385E-03
     265 0.5156E-03
     266 0.5696E-03
     267 0.5351E-03
     268 0.5226E-03
     269 0.4815E-03
     270 0.4783E-03
     271 0.4767E-03
     272 0.4764E-03
     273 0.4742E-03
     274 0.5591E-03
     275 0.5203E-03
     276 0.5115E-03
     277 0.8896E-03
     278 0.6656E-03
     279 0.5635E-03
     280 0.5180E-03
     281 0.5928E-03
     282 0.4834E-03
     283 0.4998E-03
     284 0.4851E-03
     285 0.4892E-03
     286 0.5038E-03
     287 0.5958E-03
     288 0.5421E-03
     289 0.2312E-02
     290 0.5548E-03
     291 0.5600E-03
     292 0.5998E-03
     293 0.6099E-03
     294 0.8022E-03
     295 0.5570E-03
     296 0.5560E-03
     297 0.5806E-03
     298 0.5797E-03
     299 0.5661E-03
     300 0.5710E-03
     301 0.6522E-03
     302 0.6038E-03
     303 0.5903E-03
     304 0.5982E-03
     305 0.6784E-03
     306 0.6831E-03
     307 0.6820E-03
     308 0.6846E-03
     309 0.7678E-03
     310 0.7002E-03
     311 0.7545E-03
     312 0.7133E-03
     313 0.7171E-03
     314 0.7249E-03
     315 0.7203E-03
     316 0.6300E-03
     317 0.6001E-03
     318 0.6505E-03
     319 0.6180E-03
     320 0.5915E-03
     321 0.5955E-03
     322 0.6075E-03
     323 0.6020E-03
     324 0.5707E-03
     325 0.5689E-03
     326 0.5767E-03
     327 0.5900E-03
     328 0.5827E-03
     329 0.5863E-03
     330 0.6180E-03
     331 0.5922E-03
     332 0.5755E-03
     333 0.6439E-03
     334 0.6452E-03
     335 0.6815E-03
     336 0.6820E-03
     337 0.9518E-03
     338 0.8694E-03
     339 0.7303E-03
     340 0.6299E-03
     341 0.6530E-03
     342 0.6466E-03
     343 0.6261E-03
     344 0.1934E-02
     345 0.1865E-02
     346 0.6837E-03
     347 0.5589E-03
     348 0.5602E-03
     349 0.7813E-03
     350 0.1089E-02
     351 0.9821E-03
     352 0.1154E-02
     353 0.1033E-02
     354 0.1174E-02
     355 0.7010E-03
     356 0.1696E-02
     357 0.1101E-02
     358 0.1265E-02
     359 0.1491E-02
     360 0.2186E-02
     361 0.2143E-02
     362 0.2187E-02
     363 0.2048E-02
     364 0.2008E-02
     365 0.2018E-02
     366 0.2188E-02
     367 0.2443E-02
     368 0.1394E-02
     369 0.2072E-02
     370 0.1604E-02
     371 0.1899E-02
     372 0.2273E-02
     373 0.4440E-02
     374 0.1182E-02
     375 0.1691E-02
     376 0.1639E-02
     377 0.1043E-02
     378 0.9136E-03
     379 0.8945E-03
     380 0.8094E-03
     381 0.8030E-03
     382 0.8311E-03
     383 0.8138E-03
     384 0.1083E-02
     385 0.9783E-03
     386 0.9248E-03
     387 0.1106E-02
     388 0.1200E-02
     389 0.1313E-02
     390 0.1363E-02
     391 0.1216E-02
     392 0.1186E-02
     393 0.1103E-02
     394 0.1398E-02
     395 0.1866E-02
     396 0.1560E-02
     397 0.1315E-02
     398 0.1250E-02
     399 0.1285E-02
     400 0.4253E-02
     401 0.1052E-02
     402 0.3080E-02
     403 0.2421E-02
     404 0.2230E-02
     405 0.1641E-02
     406 0.1349E-02
     407 0.1311E-02
     408 0.1291E-02
     409 0.1003E-02
     410 0.1467E-02
     411 0.1136E-02
     412 0.1136E-02
     413 0.1290E-02
     414 0.7428E-03
     415 0.1604E-02
     416 0.7728E-03
     417 0.9574E-03
     418 0.8952E-03
     419 0.8940E-03
     420 0.1364E-02
     421 0.8633E-03
     422 0.2337E-02
     423 0.1021E-02
     424 0.1037E-02
     425 0.1065E-02
     426 0.1784E-02
     427 0.1808E-02
     428 0.1823E-02
     429 0.1750E-02
     430 0.1803E-02
     431 0.1680E-02
     432 0.2215E-02
     433 0.1940E-02
     434 0.1955E-02
     435 0.1762E-02
     436 0.1711E-02
     437 0.1593E-02
     438 0.1644E-02
     439 0.1628E-02
     440 0.1708E-02
     441 0.1702E-02
     442 0.1605E-02
     443 0.1548E-02
     444 0.1709E-02
     445 0.1062E-02
     446 0.7876E-03
     447 0.8696E-03
     448 0.7530E-03
     449 0.7503E-03
     450 0.7455E-03
     451 0.7996E-03
     452 0.9202E-03
     453 0.9536E-03
     454 0.7713E-03
     455 0.8189E-03
     456 0.6956E-03
     457 0.6925E-03
     458 0.7481E-03
     459 0.5336E-03
     460 0.5934E-03
     461 0.4923E-03
     462 0.5835E-03
     463 0.6195E-03
     464 0.6210E-03
     465 0.2056E-02
     466 0.1397E-02
     467 0.1333E-02
     468 0.1238E-02
     469 0.1010E-02
     470 0.1178E-02
     471 0.1348E-02
     472 0.1183E-02
     473 0.8836E-03
     474 0.8079E-03
     475 0.7633E-03
     476 0.7531E-03
     477 0.8537E-03
     478 0.8415E-03
     479 0.8878E-03
     480 0.8593E-03
     481 0.8286E-03
     482 0.2793E-02
     483 0.2781E-02
     484 0.1118E-02
     485 0.1987E-02
     486 0.9323E-03
     487 0.9197E-03
     488 0.6370E-03
     489 0.6250E-03
     490 0.6094E-03
     491 0.6045E-03
     492 0.6032E-03
     493 0.6041E-03
     494 0.5998E-03
     495 0.6007E-03
     496 0.6156E-03
     497 0.6175E-03
     498 0.6111E-03
     499 0.6138E-03
     500 0.1177E-02
     501 0.1177E-02
NUMERICAL WARNING:: IterSolve: Failed convergence tolerances.
ComputeChange: NS (ITER=3) (NRM,RELC): ( 0.15939339E-02 0.37928425E-02 ) :: helmholtz equation
HelmholtzSolve: iter:    3 Assembly: (s)   35.02  164.88
HelmholtzSolve: iter:    3 Solve:    (s)  180.49  557.81
HelmholtzSolve: 
HelmholtzSolve: -------------------------------------
HelmholtzSolve:  Helmholtz iteration           4
HelmholtzSolve:  Frequency (Hz):    100.00000000000000
HelmholtzSolve: -------------------------------------
HelmholtzSolve: 
HelmholtzSolve: Starting Assembly
HelmholtzSolve: Assembly:
: .................... 57%
: ..............Assembly done
DefUtils::DefaultDirichletBCs: Setting Dirichlet boundary conditions
DefUtils::DefaultDirichletBCs: Dirichlet boundary conditions set
       1 0.4475E-02
       2 0.5712E-02
       3 0.5150E-02
       4 0.3061E-02
       5 0.4888E-02
       6 0.2414E-02
       7 0.2549E-02
       8 0.1836E-02
       9 0.1612E-02
      10 0.1433E-02
      11 0.2344E-02
      12 0.8353E-03
      13 0.7614E-03
      14 0.7419E-03
      15 0.7204E-03
      16 0.7238E-03
      17 0.7206E-03
      18 0.7155E-03
      19 0.7250E-03
      20 0.7337E-03
      21 0.7735E-03
      22 0.7705E-03
      23 0.7791E-03
      24 0.8877E-03
      25 0.8260E-03
      26 0.8353E-03
      27 0.8827E-03
      28 0.8703E-03
      29 0.9131E-03
      30 0.6860E-02
      31 0.5721E-02
      32 0.5248E-02
      33 0.6440E-02
      34 0.7816E-02
      35 0.3984E+00
      36 0.1511E+00
      37 0.5733E-01
      38 0.5470E-01
      39 0.4750E-01
      40 0.5594E-01
      41 0.4659E-01
      42 0.2829E-01
      43 0.2745E-01
      44 0.1944E-01
      45 0.1453E-01
      46 0.1704E-01
      47 0.1564E-01
      48 0.1625E-01
      49 0.1209E-01
      50 0.7740E-01
      51 0.4764E-01
      52 0.9900E-01
      53 0.9179E-01
      54 0.9949E-01
      55 0.9506E-01
      56 0.6761E-01
      57 0.6903E-01
      58 0.1096E+00
      59 0.3316E-01
      60 0.3462E-01
      61 0.1232E-01
      62 0.1127E-01
      63 0.1518E-01
      64 0.1516E-01
      65 0.7842E-02
      66 0.7031E-02
      67 0.6119E-02
      68 0.4945E-02
      69 0.4817E-02
      70 0.5076E-02
      71 0.4729E-02
      72 0.5039E-02
      73 0.4991E-02
      74 0.5118E-02
      75 0.4997E-02
      76 0.4688E-02
      77 0.1467E-01
      78 0.1296E-01
      79 0.1511E-01
      80 0.1627E-01
      81 0.1538E-01
      82 0.1323E-01
      83 0.1853E-01
      84 0.1641E-01
      85 0.1752E-01
      86 0.1601E-01
      87 0.1624E-01
      88 0.1469E-01
      89 0.1275E-01
      90 0.1234E-01
      91 0.1210E-01
      92 0.2028E-01
      93 0.1595E-01
      94 0.1417E-01
      95 0.1603E-01
      96 0.8036E-02
      97 0.8075E-02
      98 0.9267E-02
      99 0.8998E-02
     100 0.2733E-01
     101 0.2362E-01
     102 0.2468E-01
     103 0.2437E-01
     104 0.2467E-01
     105 0.4341E-01
     106 0.1907E-01
     107 0.1538E-01
     108 0.1367E-01
     109 0.1183E-01
     110 0.1079E-01
     111 0.9516E-02
     112 0.9424E-02
     113 0.1233E-01
     114 0.9868E-02
     115 0.7294E-02
     116 0.6976E-02
     117 0.8124E-02
     118 0.7626E-02
     119 0.7587E-02
     120 0.9092E-02
     121 0.7006E-02
     122 0.6699E-02
     123 0.6705E-02
     124 0.4626E-02
     125 0.4886E-02
     126 0.7868E-02
     127 0.7112E-02
     128 0.6662E-02
     129 0.6943E-02
     130 0.7186E-02
     131 0.7971E-02
     132 0.6602E-02
     133 0.7705E-02
     134 0.6706E-02
     135 0.6673E-02
     136 0.6323E-02
     137 0.7628E-02
     138 0.7426E-02
     139 0.9975E-02
     140 0.6072E-02
     141 0.5839E-02
     142 0.5441E-02
     143 0.5182E-02
     144 0.5066E-02
     145 0.5403E-02
     146 0.4814E-02
     147 0.4327E-02
     148 0.4260E-02
     149 0.3811E-02
     150 0.3835E-02
     151 0.4007E-02
     152 0.1016E-01
     153 0.6702E-02
     154 0.6989E-02
     155 0.6880E-02
     156 0.6507E-02
     157 0.1303E-01
     158 0.8352E-02
     159 0.5005E-02
     160 0.9535E-02
     161 0.2725E-01
     162 0.5307E-02
     163 0.5351E-02
     164 0.5731E-02
     165 0.5115E-02
     166 0.5753E-02
     167 0.5985E-02
     168 0.4153E-02
     169 0.4519E-02
     170 0.7213E-02
     171 0.3144E-02
     172 0.4977E-02
     173 0.3477E-02
     174 0.3662E-02
     175 0.3682E-02
     176 0.5090E-02
     177 0.7183E-02
     178 0.5189E-02
     179 0.5316E-02
     180 0.5268E-02
     181 0.4932E-02
     182 0.6380E-02
     183 0.4923E-02
     184 0.4865E-02
     185 0.8235E-02
     186 0.8238E-02
     187 0.7047E-02
     188 0.6397E-02
     189 0.6394E-02
     190 0.6480E-02
     191 0.5305E-02
     192 0.5861E-02
     193 0.7028E-02
     194 0.1013E-01
     195 0.1026E-01
     196 0.9710E-02
     197 0.9349E-02
     198 0.1014E-01
     199 0.8886E-02
     200 0.7787E-02
     201 0.6936E-02
     202 0.6416E-02
     203 0.2620E-02
     204 0.3424E-02
     205 0.3429E-02
     206 0.3326E-02
     207 0.3061E-02
     208 0.2677E-02
     209 0.2496E-02
     210 0.3447E-02
     211 0.5729E-02
     212 0.3092E-02
     213 0.2813E-02
     214 0.3114E-02
     215 0.4323E-02
     216 0.8754E-02
     217 0.5256E-02
     218 0.3286E-02
     219 0.2673E-02
     220 0.2494E-02
     221 0.2579E-02
     222 0.1762E-02
     223 0.4470E-02
     224 0.3507E-02
     225 0.2399E-02
     226 0.4839E-02
     227 0.3212E-02
     228 0.3236E-02
     229 0.2874E-02
     230 0.9763E-02
     231 0.1569E-01
     232 0.1510E-01
     233 0.2494E-01
     234 0.1248E-01
     235 0.3549E-01
     236 0.1489E-01
     237 0.1366E-01
     238 0.1155E-01
     239 0.5734E-01
     240 0.1818E-01
     241 0.7940E-02
     242 0.3864E-01
     243 0.3684E-02
     244 0.3693E-02
     245 0.3890E-02
     246 0.3438E-02
     247 0.9252E-02
     248 0.6975E-02
     249 0.5015E-02
     250 0.6858E-02
     251 0.4565E-02
     252 0.6343E-02
     253 0.4439E-02
     254 0.3002E-02
     255 0.4936E-02
     256 0.2961E-02
     257 0.3967E-02
     258 0.1497E-02
     259 0.1213E-02
     260 0.1340E-02
     261 0.1887E-02
     262 0.2133E-02
     263 0.2428E-02
     264 0.2854E-02
     265 0.2709E-02
     266 0.2568E-02
     267 0.3651E-02
     268 0.2619E-02
     269 0.2323E-02
     270 0.2327E-02
     271 0.2246E-02
     272 0.2597E-02
     273 0.2567E-02
     274 0.2324E-02
     275 0.2288E-02
     276 0.2632E-02
     277 0.2501E-02
     278 0.2508E-02
     279 0.2655E-02
     280 0.2893E-02
     281 0.2841E-02
     282 0.2887E-02
     283 0.2710E-02
     284 0.2667E-02
     285 0.2551E-02
     286 0.3045E-02
     287 0.1860E-02
     288 0.2421E-02
     289 0.2927E-02
     290 0.1807E-02
     291 0.1408E-02
     292 0.1212E-02
     293 0.1171E-02
     294 0.8284E-03
     295 0.9330E-03
     296 0.2986E-02
     297 0.2539E-02
     298 0.1888E-01
     299 0.3872E-02
     300 0.2358E-02
     301 0.1955E-02
     302 0.2072E-02
     303 0.2597E-02
     304 0.4761E-02
     305 0.3204E-02
     306 0.1725E-02
     307 0.6295E-03
     308 0.1004E-02
     309 0.9449E-03
     310 0.1612E-02
     311 0.1930E-02
     312 0.1351E-02
     313 0.1137E-02
     314 0.1087E-02
     315 0.1087E-02
     316 0.1037E-02
     317 0.8247E-03
     318 0.1057E-02
     319 0.1076E-02
     320 0.1553E-02
     321 0.1157E-02
     322 0.7738E-03
     323 0.7247E-03
     324 0.7181E-03
     325 0.6915E-03
     326 0.6961E-03
     327 0.1412E-02
     328 0.9143E-03
     329 0.8478E-03
     330 0.8391E-03
     331 0.8509E-03
     332 0.7792E-03
     333 0.7701E-03
     334 0.7313E-03
     335 0.7454E-03
     336 0.6277E-03
     337 0.6349E-03
     338 0.6256E-03
     339 0.6338E-03
     340 0.6632E-03
     341 0.6308E-03
     342 0.6078E-03
     343 0.6225E-03
     344 0.6628E-03
     345 0.6205E-03
     346 0.6112E-03
     347 0.6217E-03
     348 0.6690E-03
     349 0.6633E-03
     350 0.6757E-03
     351 0.7660E-03
     352 0.6427E-03
     353 0.6689E-03
     354 0.6969E-03
     355 0.5067E-03
     356 0.4975E-03
     357 0.1042E-02
     358 0.6695E-03
     359 0.7564E-03
     360 0.1189E-02
     361 0.9694E-03
     362 0.1516E-02
     363 0.1152E-02
     364 0.1034E-02
     365 0.8839E-03
     366 0.9838E-03
     367 0.8888E-03
     368 0.1668E-02
     369 0.8368E-03
     370 0.7080E-03
     371 0.8528E-03
     372 0.7515E-03
     373 0.1530E-02
     374 0.1076E-02
     375 0.8570E-03
     376 0.8057E-03
     377 0.7862E-03
     378 0.6547E-03
     379 0.5971E-03
     380 0.4482E-03
     381 0.4838E-03
     382 0.5035E-03
     383 0.1467E-02
     384 0.2373E-02
     385 0.3013E-02
     386 0.3636E-02
     387 0.2800E-02
     388 0.7792E-03
     389 0.1441E-02
     390 0.8869E-03
     391 0.5982E-03
     392 0.5862E-03
     393 0.8352E-03
     394 0.6248E-03
     395 0.5413E-03
     396 0.5388E-03
     397 0.5407E-03
     398 0.5419E-03
     399 0.5668E-03
     400 0.7164E-03
     401 0.7776E-03
     402 0.7063E-03
     403 0.8452E-03
     404 0.8207E-03
     405 0.4987E-03
     406 0.5302E-03
     407 0.5927E-03
     408 0.5718E-03
     409 0.6809E-03
     410 0.4561E-03
     411 0.3686E-03
     412 0.3854E-03
     413 0.4353E-03
     414 0.4342E-03
     415 0.4384E-03
     416 0.4465E-03
     417 0.8188E-03
     418 0.7931E-03
     419 0.7336E-03
     420 0.7608E-03
     421 0.7093E-03
     422 0.7359E-03
     423 0.6889E-03
     424 0.6130E-03
     425 0.6624E-03
     426 0.4451E-03
     427 0.4601E-03
     428 0.4548E-03
     429 0.4576E-03
     430 0.4516E-03
     431 0.4497E-03
     432 0.4759E-03
     433 0.5389E-03
     434 0.3118E-03
     435 0.3322E-03
     436 0.3202E-03
     437 0.3184E-03
     438 0.3048E-03
     439 0.3158E-03
     440 0.3156E-03
     441 0.3061E-03
     442 0.3027E-03
     443 0.2989E-03
     444 0.2976E-03
     445 0.3097E-03
     446 0.3200E-03
     447 0.3437E-03
     448 0.3473E-03
     449 0.3266E-03
     450 0.4227E-03
     451 0.5011E-03
     452 0.5501E-03
     453 0.4801E-03
     454 0.4985E-03
     455 0.5045E-03
     456 0.4683E-03
     457 0.4961E-03
     458 0.4056E-03
     459 0.4001E-03
     460 0.3811E-03
     461 0.3762E-03
     462 0.4797E-03
     463 0.5574E-03
     464 0.4232E-03
     465 0.4718E-03
     466 0.5976E-03
     467 0.5905E-03
     468 0.3686E-03
     469 0.3675E-03
     470 0.3493E-03
     471 0.3908E-03
     472 0.4045E-03
     473 0.2643E-03
     474 0.2522E-03
     475 0.2355E-03
     476 0.2588E-03
     477 0.2398E-03
     478 0.2423E-03
     479 0.2278E-03
     480 0.2285E-03
     481 0.2277E-03
     482 0.2283E-03
     483 0.2318E-03
     484 0.4770E-03
     485 0.4805E-03
     486 0.4254E-03
     487 0.3459E-03
     488 0.3512E-03
     489 0.3789E-03
     490 0.4040E-03
     491 0.3507E-03
     492 0.3435E-03
     493 0.3102E-03
     494 0.2775E-03
     495 0.4578E-03
     496 0.9989E-03
     497 0.4833E-03
     498 0.2864E-03
     499 0.2636E-03
     500 0.2634E-03
     501 0.2634E-03
NUMERICAL WARNING:: IterSolve: Failed convergence tolerances.
ComputeChange: NS (ITER=4) (NRM,RELC): ( 0.15941748E-02 0.15110206E-03 ) :: helmholtz equation
HelmholtzSolve: iter:    4 Assembly: (s)   35.44  200.32
HelmholtzSolve: iter:    4 Solve:    (s)  176.34  734.16
HelmholtzSolve: 
HelmholtzSolve: -------------------------------------
HelmholtzSolve:  Helmholtz iteration           5
HelmholtzSolve:  Frequency (Hz):    100.00000000000000
HelmholtzSolve: -------------------------------------
HelmholtzSolve: 
HelmholtzSolve: Starting Assembly
HelmholtzSolve: Assembly:
: .................... 55%
: ...............Assembly done
DefUtils::DefaultDirichletBCs: Setting Dirichlet boundary conditions
DefUtils::DefaultDirichletBCs: Dirichlet boundary conditions set
       1 0.8671E-03
       2 0.6186E-03
       3 0.6074E-03
       4 0.6406E-03
       5 0.7289E-03
       6 0.5647E-03
       7 0.5612E-03
       8 0.4413E-03
       9 0.4319E-03
      10 0.4327E-03
      11 0.4069E-03
      12 0.3789E-03
      13 0.3740E-02
      14 0.2975E-02
      15 0.7962E-03
      16 0.6592E-03
      17 0.6049E-03
      18 0.7155E-03
      19 0.5190E-03
      20 0.4664E-03
      21 0.4735E-03
      22 0.3244E-03
      23 0.3980E-03
      24 0.3446E-03
      25 0.4395E-03
      26 0.2909E-03
      27 0.2961E-03
      28 0.3518E-03
      29 0.3207E-03
      30 0.5454E-03
      31 0.4520E-03
      32 0.3928E-03
      33 0.3137E-03
      34 0.3576E-03
      35 0.2800E-03
      36 0.2423E-03
      37 0.2291E-03
      38 0.2388E-03
      39 0.2425E-03
      40 0.2363E-03
      41 0.2363E-03
      42 0.2404E-03
      43 0.2848E-03
      44 0.3179E-03
      45 0.2564E-03
      46 0.2456E-03
      47 0.2483E-03
      48 0.2385E-03
      49 0.2427E-03
      50 0.2389E-03
      51 0.2709E-03
      52 0.2704E-03
      53 0.2201E-03
      54 0.2348E-03
      55 0.2828E-03
      56 0.2482E-03
      57 0.2679E-03
      58 0.5651E-03
      59 0.4493E-03
      60 0.3629E-03
      61 0.3734E-03
      62 0.3778E-03
      63 0.3626E-03
      64 0.3395E-03
      65 0.3054E-03
      66 0.2955E-03
      67 0.3252E-03
      68 0.3283E-03
      69 0.3222E-03
      70 0.3163E-03
      71 0.3025E-03
      72 0.2843E-03
      73 0.2665E-03
      74 0.2682E-03
      75 0.2737E-03
      76 0.3011E-03
      77 0.2797E-03
      78 0.2564E-03
      79 0.3624E-03
      80 0.3635E-03
      81 0.3001E-03
      82 0.2359E-03
      83 0.2954E-03
      84 0.2643E-03
      85 0.2262E-03
      86 0.2230E-03
      87 0.1992E-03
      88 0.2631E-03
      89 0.2835E-03
      90 0.2411E-03
      91 0.2373E-03
      92 0.2506E-03
      93 0.3211E-03
      94 0.2527E-03
      95 0.1877E-03
      96 0.1709E-03
      97 0.1505E-03
      98 0.1510E-03
      99 0.1318E-03
     100 0.2928E-03
     101 0.1719E-03
     102 0.1421E-03
     103 0.1722E-03
     104 0.1594E-03
     105 0.3914E-03
     106 0.3852E-03
     107 0.4728E-03
     108 0.3840E-03
     109 0.6119E-03
     110 0.6350E-03
     111 0.1026E-02
     112 0.5797E-03
     113 0.5926E-03
     114 0.4895E-03
     115 0.3036E-03
     116 0.6015E-03
     117 0.6217E-03
     118 0.2020E-02
     119 0.1809E-03
     120 0.1640E-03
     121 0.8874E-04
     122 0.8033E-04
     123 0.9427E-04
     124 0.8201E-04
     125 0.8007E-04
     126 0.8329E-04
     127 0.8235E-04
     128 0.8408E-04
     129 0.1044E-03
     130 0.7992E-04
     131 0.1057E-03
     132 0.8564E-04
     133 0.9130E-04
     134 0.9055E-04
     135 0.9594E-04
     136 0.3106E-03
     137 0.1092E-03
     138 0.1203E-03
     139 0.1540E-03
     140 0.1325E-03
     141 0.9984E-04
     142 0.9067E-04
     143 0.1377E-03
     144 0.1192E-03
     145 0.1329E-03
     146 0.2508E-03
     147 0.2867E-03
     148 0.3800E-03
     149 0.1767E-03
     150 0.1090E-03
     151 0.9061E-04
     152 0.1097E-03
     153 0.8926E-04
     154 0.7317E-04
     155 0.1287E-03
     156 0.9160E-04
     157 0.8689E-04
     158 0.2168E-03
     159 0.6776E-04
     160 0.6833E-04
     161 0.9392E-04
     162 0.6699E-04
     163 0.1685E-03
     164 0.1406E-03
     165 0.9421E-04
     166 0.5570E-04
     167 0.4820E-04
     168 0.4739E-04
     169 0.4602E-04
     170 0.5377E-04
     171 0.5303E-04
     172 0.4793E-04
     173 0.4811E-04
     174 0.4798E-04
     175 0.4841E-04
     176 0.5060E-04
     177 0.5889E-04
     178 0.5284E-04
     179 0.5451E-04
     180 0.5269E-04
     181 0.5414E-04
     182 0.5384E-04
     183 0.4881E-04
     184 0.4875E-04
     185 0.4854E-04
     186 0.6298E-04
     187 0.5103E-04
     188 0.5128E-04
     189 0.4760E-04
     190 0.4755E-04
     191 0.5146E-04
     192 0.6803E-04
     193 0.5890E-04
     194 0.5557E-04
     195 0.5423E-04
     196 0.5751E-04
     197 0.5032E-04
     198 0.5212E-04
     199 0.5280E-04
     200 0.5592E-04
     201 0.5015E-04
     202 0.4847E-04
     203 0.5663E-04
     204 0.5975E-04
     205 0.2094E-03
     206 0.6381E-04
     207 0.5798E-04
     208 0.4884E-04
     209 0.4630E-04
     210 0.4248E-04
     211 0.4097E-04
     212 0.3572E-04
     213 0.3831E-04
     214 0.4650E-04
     215 0.3952E-04
     216 0.3709E-04
     217 0.3790E-04
     218 0.3836E-04
     219 0.4154E-04
     220 0.4108E-04
     221 0.6684E-04
     222 0.4106E-04
     223 0.3930E-04
     224 0.3855E-04
     225 0.3837E-04
     226 0.4432E-04
     227 0.3315E-04
     228 0.2894E-04
     229 0.2813E-04
     230 0.2745E-04
     231 0.2677E-04
     232 0.4586E-04
     233 0.3249E-04
     234 0.3009E-04
     235 0.2674E-04
     236 0.2814E-04
     237 0.2778E-04
     238 0.2723E-04
     239 0.3186E-04
     240 0.3005E-04
     241 0.2962E-04
     242 0.2883E-04
     243 0.2873E-04
     244 0.2974E-04
     245 0.2882E-04
     246 0.1221E-03
     247 0.5177E-04
     248 0.3420E-04
     249 0.3605E-04
     250 0.3948E-04
     251 0.6728E-04
     252 0.1095E-03
     253 0.5422E-04
     254 0.3933E-04
     255 0.3889E-04
     256 0.3727E-04
     257 0.3373E-04
     258 0.2785E-04
     259 0.3354E-04
     260 0.2983E-04
     261 0.2765E-04
     262 0.2666E-04
     263 0.2676E-04
     264 0.2682E-04
     265 0.2717E-04
     266 0.2793E-04
     267 0.2716E-04
     268 0.2869E-04
     269 0.2682E-04
     270 0.2680E-04
     271 0.2662E-04
     272 0.2660E-04
     273 0.2661E-04
     274 0.2659E-04
     275 0.2659E-04
     276 0.2802E-04
     277 0.5146E-04
     278 0.3182E-04
     279 0.2941E-04
     280 0.2849E-04
     281 0.3168E-04
     282 0.3144E-04
     283 0.3153E-04
     284 0.3386E-04
     285 0.4044E-04
     286 0.1465E-03
     287 0.2941E-04
     288 0.3452E-04
     289 0.3117E-04
     290 0.2908E-04
     291 0.3775E-04
     292 0.3134E-04
     293 0.3027E-04
     294 0.2782E-04
     295 0.2791E-04
     296 0.2896E-04
     297 0.2849E-04
     298 0.2836E-04
     299 0.2828E-04
     300 0.3201E-04
     301 0.2841E-04
     302 0.3231E-04
     303 0.3119E-04
     304 0.3029E-04
     305 0.3939E-04
     306 0.3038E-04
     307 0.3452E-04
     308 0.4752E-04
     309 0.3321E-04
     310 0.3193E-04
     311 0.3069E-04
     312 0.3035E-04
     313 0.3798E-04
     314 0.3394E-04
     315 0.3643E-04
     316 0.3377E-04
     317 0.3460E-04
     318 0.4157E-04
     319 0.3904E-04
     320 0.3291E-04
     321 0.3037E-04
     322 0.3111E-04
     323 0.6007E-04
     324 0.3273E-04
     325 0.3373E-04
     326 0.3182E-04
     327 0.3142E-04
     328 0.3083E-04
     329 0.3104E-04
     330 0.3093E-04
     331 0.3164E-04
     332 0.3184E-04
     333 0.3134E-04
     334 0.3615E-04
     335 0.3166E-04
     336 0.3479E-04
     337 0.3159E-04
     338 0.3018E-04
     339 0.3031E-04
     340 0.3071E-04
     341 0.3072E-04
     342 0.3063E-04
     343 0.3159E-04
     344 0.3265E-04
     345 0.3258E-04
     346 0.3166E-04
     347 0.3279E-04
     348 0.3113E-04
     349 0.3131E-04
     350 0.3151E-04
     351 0.3159E-04
     352 0.3873E-04
     353 0.3207E-04
     354 0.3982E-04
     355 0.4548E-04
     356 0.3735E-04
     357 0.2961E-04
     358 0.3300E-04
     359 0.3163E-04
     360 0.5066E-04
     361 0.3042E-04
     362 0.2952E-04
     363 0.2965E-04
     364 0.2916E-04
     365 0.2928E-04
     366 0.2953E-04
     367 0.2988E-04
     368 0.3040E-04
     369 0.3021E-04
     370 0.4712E-04
     371 0.3286E-04
     372 0.3156E-04
     373 0.3256E-04
     374 0.3143E-04
     375 0.3746E-04
     376 0.4249E-04
     377 0.5186E-04
     378 0.5097E-04
     379 0.4882E-04
     380 0.3286E-04
     381 0.3395E-04
     382 0.1935E-04
     383 0.4137E-04
     384 0.2522E-03
     385 0.1868E-03
     386 0.2237E-03
     387 0.1364E-03
     388 0.5645E-04
     389 0.4099E-04
     390 0.4566E-04
     391 0.5563E-04
     392 0.1714E-03
     393 0.1067E-03
     394 0.5073E-04
     395 0.3402E-04
     396 0.7537E-04
     397 0.7896E-04
     398 0.1244E-03
     399 0.1415E-03
     400 0.9223E-04
     401 0.2568E-04
     402 0.3726E-04
     403 0.3479E-04
     404 0.3563E-04
     405 0.3563E-04
     406 0.3479E-04
     407 0.3376E-04
     408 0.3433E-04
     409 0.3269E-04
     410 0.2490E-04
     411 0.4458E-04
     412 0.8278E-04
     413 0.7663E-04
     414 0.2998E-04
     415 0.5485E-04
     416 0.5550E-04
     417 0.3938E-04
     418 0.3535E-04
     419 0.4786E-04
     420 0.4154E-04
     421 0.3543E-04
     422 0.3872E-04
     423 0.3710E-04
     424 0.3321E-04
     425 0.3129E-04
     426 0.3108E-04
     427 0.3309E-04
     428 0.3232E-04
     429 0.3289E-04
     430 0.3121E-04
     431 0.3140E-04
     432 0.5648E-04
     433 0.4172E-04
     434 0.3510E-04
     435 0.3461E-04
     436 0.3639E-04
     437 0.3533E-04
     438 0.4020E-04
     439 0.3414E-04
     440 0.5028E-04
     441 0.7953E-04
     442 0.5920E-04
     443 0.3390E-04
     444 0.2170E-04
     445 0.2133E-04
     446 0.2011E-04
     447 0.1867E-04
     448 0.1843E-04
     449 0.1840E-04
     450 0.2140E-04
     451 0.2008E-04
     452 0.1945E-04
     453 0.2152E-04
     454 0.2281E-04
     455 0.2225E-04
     456 0.2275E-04
     457 0.2269E-04
     458 0.3669E-04
     459 0.3204E-04
     460 0.2923E-04
     461 0.3815E-04
     462 0.2322E-04
     463 0.3315E-04
     464 0.2343E-04
     465 0.2417E-04
     466 0.2405E-04
     467 0.2400E-04
     468 0.2472E-04
     469 0.2391E-04
     470 0.2401E-04
     471 0.7805E-04
     472 0.4239E-04
     473 0.2668E-04
     474 0.2402E-04
     475 0.2375E-04
     476 0.3865E-03
     477 0.2422E-03
     478 0.3880E-03
     479 0.3531E-04
     480 0.5316E-04
     481 0.5481E-04
     482 0.5911E-04
     483 0.3660E-04
     484 0.2872E-04
     485 0.2706E-04
     486 0.3244E-04
     487 0.3655E-04
     488 0.3219E-04
     489 0.2823E-04
     490 0.2819E-04
     491 0.2930E-04
     492 0.2879E-04
     493 0.2895E-04
     494 0.2751E-04
     495 0.2755E-04
     496 0.8191E-04
     497 0.1009E-03
     498 0.9658E-04
     499 0.1071E-03
     500 0.4976E-04
     501 0.4976E-04
NUMERICAL WARNING:: IterSolve: Failed convergence tolerances.
ComputeChange: NS (ITER=5) (NRM,RELC): ( 0.15948043E-02 0.39481766E-03 ) :: helmholtz equation
HelmholtzSolve: iter:    5 Assembly: (s)   35.88  236.20
HelmholtzSolve: iter:    5 Solve:    (s)  154.94  889.10
HelmholtzSolve: 
HelmholtzSolve: -------------------------------------
HelmholtzSolve:  Helmholtz iteration           6
HelmholtzSolve:  Frequency (Hz):    100.00000000000000
HelmholtzSolve: -------------------------------------
HelmholtzSolve: 
HelmholtzSolve: Starting Assembly
HelmholtzSolve: Assembly:
: .................... 53%
: .................Assembly done
DefUtils::DefaultDirichletBCs: Setting Dirichlet boundary conditions
DefUtils::DefaultDirichletBCs: Dirichlet boundary conditions set
       1 0.3554E-02
       2 0.9359E-03
       3 0.1138E-02
       4 0.2717E-03
       5 0.1136E-03
       6 0.5353E-04
       7 0.9933E-04
       8 0.2861E-04
       9 0.5407E-04
      10 0.2093E-04
      11 0.4119E-04
      12 0.2222E-04
      13 0.2507E-04
      14 0.2175E-04
      15 0.2112E-04
      16 0.2231E-04
      17 0.2638E-04
      18 0.2765E-04
      19 0.3178E-04
      20 0.5187E-04
      21 0.7342E-04
      22 0.8869E-04
      23 0.9485E-04
      24 0.6354E-04
      25 0.6609E-04
      26 0.1275E-03
      27 0.5367E-04
      28 0.7378E-04
      29 0.8576E-04
      30 0.4809E-04
      31 0.4446E-04
      32 0.4215E-04
      33 0.8123E-04
      34 0.2562E-03
      35 0.2716E-03
      36 0.1585E-03
      37 0.3049E-03
      38 0.3877E-03
      39 0.2842E-03
      40 0.6208E-04
      41 0.3295E-04
      42 0.2270E-04
      43 0.2135E-04
      44 0.2183E-04
      45 0.2491E-04
      46 0.1362E-03
      47 0.7719E-04
      48 0.9309E-04
      49 0.9829E-04
      50 0.8038E-04
      51 0.8015E-04
      52 0.6964E-04
      53 0.7191E-04
      54 0.1640E-03
      55 0.3081E-03
      56 0.2861E-03
      57 0.3372E-03
      58 0.1769E-03
      59 0.2388E-03
      60 0.1357E-03
      61 0.8313E-04
      62 0.1759E-03
      63 0.2249E-03
      64 0.1664E-03
      65 0.1567E-03
      66 0.1492E-03
      67 0.4267E-04
      68 0.2114E-04
      69 0.2116E-04
      70 0.1836E-04
      71 0.1650E-04
      72 0.1774E-04
      73 0.1725E-04
      74 0.1630E-04
      75 0.1617E-04
      76 0.1653E-04
      77 0.1957E-04
      78 0.6285E-04
      79 0.4802E-04
      80 0.1492E-04
      81 0.1438E-04
      82 0.1401E-04
      83 0.1430E-04
      84 0.1977E-04
      85 0.2000E-04
      86 0.1758E-04
      87 0.1657E-04
      88 0.1635E-04
      89 0.2034E-04
      90 0.1706E-04
      91 0.1687E-04
      92 0.1357E-04
      93 0.1333E-04
      94 0.1500E-04
      95 0.1532E-04
      96 0.2033E-04
      97 0.2002E-04
      98 0.3830E-04
      99 0.2628E-04
     100 0.3515E-04
     101 0.1466E-04
     102 0.1460E-04
     103 0.1376E-04
     104 0.2539E-04
     105 0.1775E-04
     106 0.1587E-04
     107 0.1401E-04
     108 0.1240E-04
     109 0.1241E-04
     110 0.1236E-04
     111 0.1341E-04
     112 0.1298E-04
     113 0.1301E-04
     114 0.1310E-04
     115 0.1329E-04
     116 0.1312E-04
     117 0.1318E-04
     118 0.1321E-04
     119 0.1311E-04
     120 0.1258E-04
     121 0.1423E-04
     122 0.1278E-04
     123 0.1463E-04
     124 0.1300E-04
     125 0.1293E-04
     126 0.1322E-04
     127 0.3311E-04
     128 0.3727E-04
     129 0.3438E-04
     130 0.5029E-04
     131 0.4758E-04
     132 0.5132E-04
     133 0.4617E-04
     134 0.5490E-04
     135 0.1681E-04
     136 0.1533E-04
     137 0.1436E-04
     138 0.1380E-04
     139 0.1353E-04
     140 0.1343E-04
     141 0.1410E-04
     142 0.2146E-04
     143 0.1537E-04
     144 0.1393E-04
     145 0.1405E-04
     146 0.1331E-04
     147 0.1324E-04
     148 0.1299E-04
     149 0.1295E-04
     150 0.1290E-04
     151 0.1288E-04
     152 0.1275E-04
     153 0.1255E-04
     154 0.1246E-04
     155 0.1286E-04
     156 0.1245E-04
     157 0.1253E-04
     158 0.1664E-04
     159 0.1246E-04
     160 0.1354E-04
     161 0.1232E-04
     162 0.1162E-04
     163 0.1371E-04
     164 0.1463E-04
     165 0.1548E-04
     166 0.1553E-04
     167 0.1070E-04
     168 0.1038E-04
     169 0.6617E-04
     170 0.3225E-04
     171 0.2554E-04
     172 0.1822E-04
     173 0.1824E-04
     174 0.3509E-04
     175 0.2673E-04
     176 0.6681E-04
     177 0.4775E-04
     178 0.8161E-05
     179 0.8002E-05
     180 0.7233E-05
     181 0.7088E-05
     182 0.6669E-05
     183 0.1267E-04
     184 0.1163E-04
     185 0.9978E-05
     186 0.8411E-05
     187 0.1182E-04
     188 0.7037E-05
     189 0.6785E-05
     190 0.6665E-05
     191 0.1166E-04
     192 0.1114E-04
     193 0.6391E-05
     194 0.6417E-05
     195 0.6411E-05
     196 0.1058E-04
     197 0.1010E-04
     198 0.1076E-04
     199 0.9817E-05
     200 0.9278E-05
     201 0.6504E-05
     202 0.6465E-05
     203 0.6528E-05
     204 0.7059E-05
     205 0.6843E-05
     206 0.6977E-05
     207 0.6908E-05
     208 0.6859E-05
     209 0.7485E-05
     210 0.6664E-05
     211 0.6695E-05
     212 0.7462E-05
     213 0.6963E-05
     214 0.7729E-05
     215 0.7537E-05
     216 0.7453E-05
     217 0.9194E-05
     218 0.8267E-05
     219 0.7717E-05
     220 0.7199E-05
     221 0.7142E-05
     222 0.7629E-05
     223 0.7316E-05
     224 0.7239E-05
     225 0.7352E-05
     226 0.8431E-05
     227 0.8594E-05
     228 0.1049E-04
     229 0.7152E-05
     230 0.7619E-05
     231 0.7774E-05
     232 0.8198E-05
     233 0.8435E-05
     234 0.8079E-05
     235 0.7887E-05
     236 0.7654E-05
     237 0.7600E-05
     238 0.7030E-05
     239 0.5571E-05
     240 0.7357E-05
     241 0.4559E-05
     242 0.4728E-05
     243 0.5224E-05
     244 0.5156E-05
     245 0.7369E-05
     246 0.5194E-05
     247 0.5155E-05
     248 0.4383E-05
     249 0.4859E-05
     250 0.4646E-05
     251 0.5663E-05
     252 0.9563E-05
     253 0.6139E-05
     254 0.9354E-05
     255 0.9081E-05
     256 0.9207E-05
     257 0.9190E-05
     258 0.9120E-05
     259 0.9174E-05
     260 0.1930E-04
     261 0.1096E-04
     262 0.1253E-04
     263 0.1501E-04
     264 0.1352E-04
     265 0.1190E-04
     266 0.1169E-04
     267 0.7953E-05
     268 0.8481E-05
     269 0.1372E-04
     270 0.9331E-05
     271 0.9895E-05
     272 0.9613E-05
     273 0.9218E-05
     274 0.1019E-04
     275 0.1135E-04
     276 0.1092E-04
     277 0.1086E-04
     278 0.1046E-04
     279 0.1012E-04
     280 0.9971E-05
     281 0.1005E-04
     282 0.1004E-04
     283 0.9976E-05
     284 0.9837E-05
     285 0.9786E-05
     286 0.9857E-05
     287 0.9876E-05
     288 0.9673E-05
     289 0.9560E-05
     290 0.8344E-05
     291 0.8355E-05
     292 0.8501E-05
     293 0.8256E-05
     294 0.8271E-05
     295 0.8100E-05
     296 0.8494E-05
     297 0.8300E-05
     298 0.8710E-05
     299 0.8317E-05
     300 0.8239E-05
     301 0.8324E-05
     302 0.8313E-05
     303 0.7828E-05
     304 0.7414E-05
     305 0.7165E-05
     306 0.6382E-05
     307 0.7158E-05
     308 0.7099E-05
     309 0.7063E-05
     310 0.6838E-05
     311 0.7769E-05
     312 0.7420E-05
     313 0.7538E-05
     314 0.7710E-05
     315 0.1144E-04
     316 0.7985E-05
     317 0.8105E-05
     318 0.8471E-05
     319 0.8230E-05
     320 0.8584E-05
     321 0.8416E-05
     322 0.8026E-05
     323 0.8092E-05
     324 0.7109E-05
     325 0.7334E-05
     326 0.7176E-05
     327 0.6365E-05
     328 0.8021E-05
     329 0.8572E-05
     330 0.8383E-05
     331 0.7951E-05
     332 0.7709E-05
     333 0.8050E-05
     334 0.7668E-05
     335 0.7817E-05
     336 0.7838E-05
     337 0.7907E-05
     338 0.7776E-05
     339 0.7840E-05
     340 0.7431E-05
     341 0.7375E-05
     342 0.7141E-05
     343 0.6968E-05
     344 0.7058E-05
     345 0.7177E-05
     346 0.9064E-05
     347 0.1145E-04
     348 0.1403E-04
     349 0.1552E-04
     350 0.1537E-04
     351 0.1058E-04
     352 0.1539E-04
     353 0.1706E-04
     354 0.1700E-04
     355 0.1642E-04
     356 0.1265E-04
     357 0.1706E-04
     358 0.1525E-04
     359 0.1595E-04
     360 0.1685E-04
     361 0.1304E-04
     362 0.1424E-04
     363 0.1346E-04
     364 0.1304E-04
     365 0.1411E-04
     366 0.1656E-04
     367 0.1096E-04
     368 0.2303E-04
     369 0.3761E-04
     370 0.3324E-04
     371 0.7218E-04
     372 0.2240E-04
     373 0.1271E-04
     374 0.1245E-04
     375 0.1168E-04
     376 0.9038E-04
     377 0.1865E-04
     378 0.1275E-04
     379 0.1632E-04
     380 0.1525E-04
     381 0.1559E-04
     382 0.1708E-04
     383 0.1701E-04
     384 0.1688E-04
     385 0.1834E-04
     386 0.1874E-04
     387 0.1856E-04
     388 0.1927E-04
     389 0.1933E-04
     390 0.1760E-04
     391 0.1865E-04
     392 0.1800E-04
     393 0.1924E-04
     394 0.2028E-04
     395 0.1863E-04
     396 0.1880E-04
     397 0.1880E-04
     398 0.1953E-04
     399 0.1375E-04
     400 0.1658E-04
     401 0.1476E-04
     402 0.1509E-04
     403 0.1492E-04
     404 0.1619E-04
     405 0.1697E-04
     406 0.4631E-04
     407 0.7479E-04
     408 0.5507E-04
     409 0.1925E-04
     410 0.1922E-04
     411 0.2615E-04
     412 0.2613E-04
     413 0.2715E-04
     414 0.2752E-04
     415 0.4096E-04
     416 0.5952E-04
     417 0.4586E-04
     418 0.4579E-04
     419 0.4604E-04
     420 0.5091E-04
     421 0.5304E-04
     422 0.4897E-04
     423 0.4666E-04
     424 0.7826E-04
     425 0.7094E-04
     426 0.1690E-03
     427 0.8344E-04
     428 0.5186E-04
     429 0.4820E-04
     430 0.4679E-04
     431 0.4776E-04
     432 0.3518E-04
     433 0.4563E-04
     434 0.4141E-04
     435 0.3549E-04
     436 0.3919E-04
     437 0.3673E-04
     438 0.3427E-04
     439 0.3423E-04
     440 0.3483E-04
     441 0.3043E-04
     442 0.2933E-04
     443 0.2800E-04
     444 0.3667E-04
     445 0.3343E-04
     446 0.3731E-04
     447 0.3766E-04
     448 0.3606E-04
     449 0.7486E-04
     450 0.3441E-04
     451 0.1882E-04
     452 0.2127E-04
     453 0.2329E-04
     454 0.1770E-04
     455 0.1543E-04
     456 0.1659E-04
     457 0.1595E-04
     458 0.1493E-04
     459 0.1497E-04
     460 0.1524E-04
     461 0.1663E-04
     462 0.1325E-04
     463 0.1321E-04
     464 0.1523E-04
     465 0.1502E-04
     466 0.1478E-04
     467 0.1525E-04
     468 0.1526E-04
     469 0.1478E-04
     470 0.1465E-04
     471 0.1335E-04
     472 0.1839E-04
     473 0.2193E-04
     474 0.3988E-04
     475 0.2521E-04
     476 0.1658E-04
     477 0.7099E-05
     478 0.8082E-05
     479 0.1394E-04
     480 0.1385E-04
     481 0.1139E-04
     482 0.1023E-04
     483 0.1014E-04
     484 0.1038E-04
     485 0.1014E-04
     486 0.1050E-04
     487 0.1076E-04
     488 0.1078E-04
     489 0.1974E-04
     490 0.1104E-04
     491 0.1177E-04
     492 0.7350E-05
     493 0.7396E-05
     494 0.7331E-05
     495 0.7652E-05
     496 0.6376E-05
     497 0.8715E-05
     498 0.6767E-05
     499 0.1345E-04
     500 0.1345E-04
     501 0.1345E-04
NUMERICAL WARNING:: IterSolve: Failed convergence tolerances.
ComputeChange: NS (ITER=6) (NRM,RELC): ( 0.15948187E-02 0.89950358E-05 ) :: helmholtz equation
HelmholtzSolve: iter:    6 Assembly: (s)   38.12  274.32
HelmholtzSolve: iter:    6 Solve:    (s)  146.99 1036.09
HelmholtzSolve: 
HelmholtzSolve: -------------------------------------
HelmholtzSolve:  Helmholtz iteration           7
HelmholtzSolve:  Frequency (Hz):    100.00000000000000
HelmholtzSolve: -------------------------------------
HelmholtzSolve: 
HelmholtzSolve: Starting Assembly
HelmholtzSolve: Assembly:
: .................... 53%
: .................Assembly done
DefUtils::DefaultDirichletBCs: Setting Dirichlet boundary conditions
DefUtils::DefaultDirichletBCs: Dirichlet boundary conditions set
       1 0.3050E-03
       2 0.9517E-04
       3 0.4618E-04
       4 0.4387E-04
       5 0.7585E-04
       6 0.4541E-04
       7 0.2060E-04
       8 0.1120E-04
       9 0.9891E-05
      10 0.9729E-05
      11 0.9660E-05
      12 0.9525E-05
      13 0.9733E-05
      14 0.9813E-05
      15 0.1324E-04
      16 0.1844E-04
      17 0.2041E-04
      18 0.2111E-04
      19 0.2211E-04
      20 0.1273E-04
      21 0.1475E-04
      22 0.1766E-04
      23 0.1969E-04
      24 0.1968E-04
      25 0.2145E-04
      26 0.1986E-04
      27 0.1829E-04
      28 0.3055E-04
      29 0.1234E-04
      30 0.1202E-04
      31 0.1266E-04
      32 0.1219E-04
      33 0.1128E-04
      34 0.1135E-04
      35 0.1139E-04
      36 0.1072E-04
      37 0.1176E-04
      38 0.1057E-04
      39 0.1234E-04
      40 0.5052E-05
      41 0.5220E-05
      42 0.5245E-05
      43 0.5282E-05
      44 0.5238E-05
      45 0.5388E-05
      46 0.5334E-05
      47 0.5117E-05
      48 0.5104E-05
      49 0.6393E-05
      50 0.6357E-05
      51 0.4874E-05
      52 0.4683E-05
      53 0.4660E-05
      54 0.4646E-05
      55 0.4643E-05
      56 0.4629E-05
      57 0.4612E-05
      58 0.4432E-05
      59 0.4400E-05
      60 0.4373E-05
      61 0.4406E-05
      62 0.4459E-05
      63 0.4964E-05
      64 0.5136E-05
      65 0.4303E-05
      66 0.4322E-05
      67 0.4272E-05
      68 0.4286E-05
      69 0.4970E-05
      70 0.4234E-05
      71 0.4250E-05
      72 0.4288E-05
      73 0.4387E-05
      74 0.4263E-05
      75 0.4414E-05
      76 0.5166E-05
      77 0.5143E-05
      78 0.5422E-05
      79 0.4859E-05
      80 0.4419E-05
      81 0.4605E-05
      82 0.4560E-05
      83 0.4556E-05
      84 0.4577E-05
      85 0.4504E-05
      86 0.4507E-05
      87 0.4525E-05
      88 0.4531E-05
      89 0.4688E-05
      90 0.4333E-05
      91 0.4165E-05
      92 0.4152E-05
      93 0.4193E-05
      94 0.8575E-05
      95 0.4754E-05
      96 0.4857E-05
      97 0.5392E-05
      98 0.4427E-05
      99 0.4073E-05
     100 0.4456E-05
     101 0.5066E-05
     102 0.5047E-05
     103 0.4326E-05
     104 0.5066E-05
     105 0.5091E-05
     106 0.5204E-05
     107 0.4826E-05
     108 0.4833E-05
     109 0.4715E-05
     110 0.9133E-05
     111 0.4495E-05
     112 0.6005E-05
     113 0.4381E-05
     114 0.3830E-05
     115 0.3655E-05
     116 0.3842E-05
     117 0.4387E-05
     118 0.3642E-05
     119 0.4864E-05
     120 0.3798E-05
     121 0.3730E-05
     122 0.4374E-05
     123 0.3652E-05
     124 0.3524E-05
     125 0.3525E-05
     126 0.3768E-05
     127 0.8990E-05
     128 0.3336E-05
     129 0.3372E-05
     130 0.3357E-05
     131 0.3422E-05
     132 0.3091E-05
     133 0.3035E-05
     134 0.3032E-05
     135 0.3011E-05
     136 0.2960E-05
     137 0.3142E-05
     138 0.3083E-05
     139 0.3044E-05
     140 0.3196E-05
     141 0.2742E-05
     142 0.1416E-05
     143 0.1296E-05
     144 0.1206E-05
     145 0.1212E-05
     146 0.1232E-05
     147 0.1357E-05
     148 0.1431E-05
     149 0.1303E-05
     150 0.1207E-05
     151 0.1315E-05
     152 0.1571E-05
     153 0.1123E-05
     154 0.1116E-05
     155 0.1109E-05
     156 0.1100E-05
     157 0.1097E-05
     158 0.1155E-05
     159 0.1157E-05
     160 0.1830E-05
     161 0.1270E-05
     162 0.1153E-05
     163 0.1110E-05
     164 0.1100E-05
     165 0.1142E-05
     166 0.1101E-05
     167 0.1026E-05
     168 0.1019E-05
     169 0.1019E-05
     170 0.2024E-05
     171 0.2140E-05
     172 0.2119E-05
     173 0.1829E-05
     174 0.1274E-05
     175 0.1156E-05
     176 0.1075E-05
     177 0.1079E-05
     178 0.1067E-05
     179 0.1065E-05
     180 0.1068E-05
     181 0.1030E-05
     182 0.1018E-05
     183 0.1044E-05
     184 0.1026E-05
     185 0.1026E-05
     186 0.1020E-05
     187 0.1036E-05
     188 0.1017E-05
     189 0.1050E-05
     190 0.1113E-05
     191 0.1081E-05
     192 0.1148E-05
     193 0.1018E-05
     194 0.1018E-05
     195 0.2494E-05
     196 0.1190E-05
     197 0.1050E-05
     198 0.1032E-05
     199 0.1022E-05
     200 0.1020E-05
     201 0.1037E-05
     202 0.1047E-05
     203 0.1106E-05
     204 0.1039E-05
     205 0.1087E-05
     206 0.1056E-05
     207 0.1062E-05
     208 0.1101E-05
     209 0.1087E-05
     210 0.1082E-05
     211 0.1097E-05
     212 0.1068E-05
     213 0.1055E-05
     214 0.1052E-05
     215 0.1045E-05
     216 0.1026E-05
     217 0.1026E-05
     218 0.1027E-05
     219 0.1021E-05
     220 0.1019E-05
     221 0.1013E-05
     222 0.1011E-05
     223 0.1010E-05
     224 0.1011E-05
     225 0.1005E-05
     226 0.1012E-05
     227 0.1032E-05
     228 0.1025E-05
     229 0.1067E-05
     230 0.1196E-05
     231 0.1293E-05
     232 0.1194E-05
     233 0.1111E-05
     234 0.2037E-05
     235 0.1724E-05
     236 0.1177E-05
     237 0.1533E-05
     238 0.1136E-05
     239 0.1143E-05
     240 0.2029E-05
     241 0.1952E-04
     242 0.9817E-06
     243 0.1163E-05
     244 0.1085E-05
     245 0.9927E-06
     246 0.9736E-06
     247 0.9791E-06
     248 0.9951E-06
     249 0.1010E-05
     250 0.9639E-06
     251 0.9491E-06
     252 0.9579E-06
     253 0.9473E-06
     254 0.9282E-06
     255 0.1101E-05
     256 0.1048E-05
     257 0.1480E-05
     258 0.1635E-05
     259 0.1653E-05
     260 0.1503E-05
     261 0.1390E-05
     262 0.1416E-05
     263 0.2166E-05
     264 0.2305E-05
     265 0.4549E-05
     266 0.4040E-05
     267 0.2720E-05
     268 0.3247E-05
     269 0.2568E-05
     270 0.2643E-05
     271 0.2252E-05
     272 0.2161E-05
     273 0.2071E-05
     274 0.1642E-05
     275 0.1854E-05
     276 0.1911E-05
     277 0.1749E-05
     278 0.1865E-05
     279 0.2158E-05
     280 0.1806E-05
     281 0.1709E-05
     282 0.1727E-05
     283 0.1696E-05
     284 0.1682E-05
     285 0.1679E-05
     286 0.1733E-05
     287 0.1719E-05
     288 0.1618E-05
     289 0.1642E-05
     290 0.1578E-05
     291 0.1524E-05
     292 0.1479E-05
     293 0.1389E-05
     294 0.1594E-05
     295 0.1548E-05
     296 0.1598E-05
     297 0.1553E-05
     298 0.1587E-05
     299 0.3779E-05
     300 0.2846E-05
     301 0.3646E-05
     302 0.1121E-04
     303 0.2946E-05
     304 0.1221E-04
     305 0.1058E-04
     306 0.1042E-04
     307 0.5016E-05
     308 0.3155E-05
     309 0.2270E-05
     310 0.6952E-05
     311 0.3010E-05
     312 0.3939E-05
     313 0.3501E-05
     314 0.1885E-05
     315 0.2584E-05
     316 0.2692E-05
     317 0.2495E-05
     318 0.2356E-05
     319 0.2805E-05
     320 0.2493E-05
     321 0.1558E-05
     322 0.1529E-05
     323 0.2138E-05
     324 0.1770E-05
     325 0.1732E-05
     326 0.1781E-05
     327 0.1705E-05
     328 0.1569E-05
     329 0.1569E-05
     330 0.1579E-05
     331 0.2353E-05
     332 0.1737E-05
     333 0.1490E-05
     334 0.4519E-05
     335 0.4497E-05
     336 0.2774E-05
     337 0.1881E-05
     338 0.1782E-05
     339 0.1775E-05
     340 0.4219E-05
     341 0.2001E-05
     342 0.1611E-05
     343 0.1689E-05
     344 0.2112E-05
     345 0.2191E-05
     346 0.1447E-05
     347 0.4082E-05
     348 0.3933E-05
     349 0.1740E-05
     350 0.1635E-05
     351 0.1333E-05
     352 0.1365E-05
     353 0.1321E-05
     354 0.1318E-05
     355 0.1311E-05
     356 0.1316E-05
     357 0.1323E-05
     358 0.1318E-05
     359 0.1317E-05
     360 0.1331E-05
     361 0.1345E-05
     362 0.1332E-05
     363 0.1405E-05
     364 0.1355E-05
     365 0.1352E-05
     366 0.1347E-05
     367 0.1519E-05
     368 0.1387E-05
     369 0.2295E-05
     370 0.1969E-05
     371 0.1841E-05
     372 0.9021E-05
     373 0.3057E-05
     374 0.2799E-05
     375 0.2103E-05
     376 0.1372E-05
     377 0.1573E-05
     378 0.1480E-05
     379 0.2157E-05
     380 0.1478E-05
     381 0.1458E-05
     382 0.1570E-05
     383 0.1563E-05
     384 0.1358E-05
     385 0.1371E-05
     386 0.1338E-05
     387 0.1331E-05
     388 0.1378E-05
     389 0.1392E-05
     390 0.1513E-05
     391 0.1718E-05
     392 0.1823E-05
     393 0.1797E-05
     394 0.1789E-05
     395 0.1769E-05
     396 0.1965E-05
     397 0.1709E-05
     398 0.1737E-05
     399 0.1771E-05
     400 0.1701E-05
     401 0.1601E-05
     402 0.1770E-05
     403 0.2093E-05
     404 0.2047E-05
[...]
      96 0.4518E-06
      97 0.1674E-06
      98 0.1816E-06
      99 0.1746E-06
     100 0.1727E-06
     101 0.1680E-06
     102 0.1667E-06
     103 0.1679E-06
     104 0.1694E-06
     105 0.1687E-06
     106 0.1660E-06
     107 0.1667E-06
     108 0.2088E-06
     109 0.1934E-06
     110 0.1672E-06
     111 0.1649E-06
     112 0.1648E-06
     113 0.1665E-06
     114 0.1672E-06
     115 0.1657E-06
     116 0.1901E-06
     117 0.1826E-06
     118 0.1717E-06
     119 0.1883E-06
     120 0.2245E-06
     121 0.1890E-06
     122 0.1741E-06
     123 0.1742E-06
     124 0.1678E-06
     125 0.1682E-06
     126 0.1693E-06
     127 0.1578E-06
     128 0.1588E-06
     129 0.1573E-06
     130 0.1593E-06
     131 0.1673E-06
     132 0.1514E-06
     133 0.1507E-06
     134 0.1489E-06
     135 0.1457E-06
     136 0.1443E-06
     137 0.1421E-06
     138 0.1405E-06
     139 0.1406E-06
     140 0.1442E-06
     141 0.1419E-06
     142 0.1429E-06
     143 0.1421E-06
     144 0.1526E-06
     145 0.2631E-06
     146 0.1554E-06
     147 0.1722E-06
     148 0.1677E-06
     149 0.1384E-06
     150 0.1315E-06
     151 0.1267E-06
     152 0.1300E-06
     153 0.1253E-06
     154 0.1341E-06
     155 0.1431E-06
     156 0.1469E-06
     157 0.1135E-05
     158 0.1333E-06
     159 0.1623E-06
     160 0.1451E-06
     161 0.1444E-06
     162 0.1300E-06
     163 0.1316E-06
     164 0.1390E-06
     165 0.1142E-06
     166 0.1093E-06
     167 0.1081E-06
     168 0.1158E-06
     169 0.1054E-06
     170 0.1015E-06
     171 0.9731E-07
     172 0.1018E-06
     173 0.1001E-06
     174 0.1003E-06
     175 0.1051E-06
     176 0.9294E-07
     177 0.9533E-07
     178 0.9725E-07
     179 0.9570E-07
     180 0.2787E-06
     181 0.2451E-06
     182 0.1195E-06
     183 0.1083E-06
     184 0.1092E-06
     185 0.1027E-06
     186 0.9995E-07
     187 0.9808E-07
     188 0.9824E-07
     189 0.9869E-07
     190 0.9848E-07
     191 0.1437E-06
     192 0.1137E-06
     193 0.1042E-06
     194 0.1046E-06
     195 0.1032E-06
     196 0.1120E-06
     197 0.1048E-06
     198 0.1049E-06
     199 0.1038E-06
     200 0.1022E-06
     201 0.1023E-06
     202 0.2946E-06
     203 0.2743E-06
     204 0.1889E-06
     205 0.2111E-06
     206 0.1566E-06
     207 0.1405E-06
     208 0.1184E-06
     209 0.1069E-06
     210 0.1207E-06
     211 0.1363E-06
     212 0.1041E-06
     213 0.1029E-06
     214 0.1021E-06
     215 0.1034E-06
     216 0.1045E-06
     217 0.1050E-06
     218 0.1057E-06
     219 0.1044E-06
     220 0.9222E-07
     221 0.9297E-07
     222 0.9111E-07
     223 0.9199E-07
     224 0.1341E-06
     225 0.9008E-07
     226 0.9145E-07
     227 0.8733E-07
     228 0.8747E-07
     229 0.8757E-07
     230 0.2428E-06
     231 0.1715E-06
     232 0.8647E-07
     233 0.8632E-07
     234 0.7488E-07
     235 0.7560E-07
     236 0.1266E-06
     237 0.2237E-06
     238 0.4330E-06
     239 0.3759E-06
     240 0.1063E-06
     241 0.8789E-07
     242 0.9066E-07
     243 0.7851E-07
     244 0.7922E-07
     245 0.7814E-07
     246 0.7697E-07
     247 0.7770E-07
     248 0.7655E-07
     249 0.1068E-06
     250 0.2834E-06
     251 0.5262E-06
     252 0.2086E-06
     253 0.1097E-06
     254 0.8898E-07
     255 0.7982E-07
     256 0.1136E-06
     257 0.9388E-07
     258 0.7807E-07
     259 0.8111E-07
     260 0.7999E-07
     261 0.7803E-07
     262 0.7913E-07
     263 0.7812E-07
     264 0.7836E-07
     265 0.7863E-07
     266 0.7878E-07
     267 0.7852E-07
     268 0.7820E-07
     269 0.7812E-07
     270 0.7740E-07
     271 0.7773E-07
     272 0.7749E-07
     273 0.7297E-07
     274 0.7166E-07
     275 0.7124E-07
     276 0.7117E-07
     277 0.7474E-07
     278 0.7240E-07
     279 0.7050E-07
     280 0.7122E-07
     281 0.7199E-07
     282 0.7119E-07
     283 0.7358E-07
     284 0.6731E-07
     285 0.6743E-07
     286 0.6715E-07
     287 0.6743E-07
     288 0.6848E-07
     289 0.6708E-07
     290 0.1654E-06
     291 0.1892E-06
     292 0.9234E-07
     293 0.8489E-07
     294 0.8947E-07
     295 0.8172E-07
     296 0.8761E-07
     297 0.8814E-07
     298 0.8604E-07
     299 0.7542E-07
     300 0.7788E-07
     301 0.3420E-06
     302 0.3207E-06
     303 0.2489E-06
     304 0.1633E-06
     305 0.7927E-07
     306 0.9010E-07
     307 0.8748E-07
     308 0.7662E-07
     309 0.7351E-07
     310 0.7644E-07
     311 0.6926E-07
     312 0.6774E-07
     313 0.6688E-07
     314 0.6543E-07
     315 0.6406E-07
     316 0.6504E-07
     317 0.6435E-07
     318 0.6591E-07
     319 0.7136E-07
     320 0.6588E-07
     321 0.6475E-07
     322 0.6438E-07
     323 0.6412E-07
     324 0.6423E-07
     325 0.6398E-07
     326 0.6799E-07
     327 0.7517E-07
     328 0.6611E-07
     329 0.6429E-07
     330 0.9909E-07
     331 0.2073E-06
     332 0.6874E-07
     333 0.6729E-07
     334 0.6587E-07
     335 0.6540E-07
     336 0.6673E-07
     337 0.7213E-07
     338 0.7196E-07
     339 0.1141E-06
     340 0.9751E-07
     341 0.6679E-07
     342 0.6566E-07
     343 0.7502E-07
     344 0.8801E-07
     345 0.8508E-07
     346 0.7700E-07
     347 0.7703E-07
     348 0.7071E-07
     349 0.6687E-07
     350 0.6368E-07
     351 0.7594E-07
     352 0.7668E-07
     353 0.6936E-07
     354 0.6136E-07
     355 0.6012E-07
     356 0.6599E-07
     357 0.6727E-07
     358 0.7232E-07
     359 0.6159E-07
     360 0.5888E-07
     361 0.5902E-07
     362 0.5938E-07
     363 0.1454E-06
     364 0.5761E-07
     365 0.6059E-07
     366 0.6771E-07
     367 0.6991E-07
     368 0.6594E-07
     369 0.6328E-07
     370 0.6518E-07
     371 0.8716E-07
     372 0.6574E-07
     373 0.5889E-07
     374 0.5873E-07
     375 0.5971E-07
     376 0.5898E-07
     377 0.5864E-07
     378 0.5901E-07
     379 0.5922E-07
     380 0.5928E-07
     381 0.5919E-07
     382 0.5828E-07
     383 0.5900E-07
     384 0.5757E-07
     385 0.5945E-07
     386 0.5939E-07
     387 0.5911E-07
     388 0.6125E-07
     389 0.8959E-07
     390 0.6019E-07
     391 0.5829E-07
     392 0.5835E-07
     393 0.6236E-07
     394 0.6061E-07
     395 0.5891E-07
     396 0.5812E-07
     397 0.5795E-07
     398 0.5990E-07
     399 0.6583E-07
     400 0.5636E-07
     401 0.5532E-07
     402 0.5456E-07
     403 0.5923E-07
     404 0.5624E-07
     405 0.5642E-07
     406 0.1199E-06
     407 0.6568E-07
     408 0.7856E-07
     409 0.7352E-07
     410 0.6506E-07
     411 0.6598E-07
     412 0.6755E-07
     413 0.6390E-07
     414 0.7603E-07
     415 0.5880E-07
     416 0.5840E-07
     417 0.6512E-07
     418 0.6123E-07
     419 0.6179E-07
     420 0.6395E-07
     421 0.6671E-07
     422 0.6482E-07
     423 0.6426E-07
     424 0.6495E-07
     425 0.6274E-07
     426 0.6450E-07
     427 0.6654E-07
     428 0.7778E-07
     429 0.8292E-07
     430 0.6922E-07
     431 0.6565E-07
     432 0.6626E-07
     433 0.7159E-07
     434 0.7303E-07
     435 0.9629E-07
     436 0.8650E-07
     437 0.7790E-07
     438 0.6540E-07
     439 0.8421E-07
     440 0.7325E-07
     441 0.7145E-07
     442 0.7235E-07
     443 0.7467E-07
     444 0.9035E-07
     445 0.6551E-07
     446 0.6465E-07
     447 0.6402E-07
     448 0.6339E-07
     449 0.1016E-06
     450 0.8417E-07
     451 0.6568E-07
     452 0.6766E-07
     453 0.6479E-07
     454 0.6485E-07
     455 0.6520E-07
     456 0.6509E-07
     457 0.6687E-07
     458 0.6525E-07
     459 0.6594E-07
     460 0.1968E-06
     461 0.1555E-06
     462 0.6416E-07
     463 0.6429E-07
     464 0.6308E-07
     465 0.1489E-06
     466 0.2243E-06
     467 0.3632E-06
     468 0.1235E-06
     469 0.7269E-07
     470 0.6246E-07
     471 0.6289E-07
     472 0.6265E-07
     473 0.6254E-07
     474 0.6244E-07
     475 0.6250E-07
     476 0.6411E-07
     477 0.7397E-07
     478 0.6915E-07
     479 0.7755E-07
     480 0.6819E-07
     481 0.6531E-07
     482 0.6947E-07
     483 0.9117E-07
     484 0.1559E-06
     485 0.6450E-07
     486 0.6227E-07
     487 0.7177E-07
     488 0.6355E-07
     489 0.6278E-07
     490 0.6279E-07
     491 0.6280E-07
     492 0.6242E-07
     493 0.6282E-07
     494 0.6292E-07
     495 0.8481E-07
     496 0.6514E-07
     497 0.6362E-07
     498 0.6741E-07
     499 0.8278E-07
     500 0.6568E-07
     501 0.6568E-07
NUMERICAL WARNING:: IterSolve: Failed convergence tolerances.
ComputeChange: NS (ITER=9) (NRM,RELC): ( 0.15948198E-02 0.41525218E-06 ) :: helmholtz equation
HelmholtzSolve: iter:    9 Assembly: (s)   37.68  387.02
HelmholtzSolve: iter:    9 Solve:    (s)  112.16 1462.10
HelmholtzSolve: 
HelmholtzSolve: -------------------------------------
HelmholtzSolve:  Helmholtz iteration          10
HelmholtzSolve:  Frequency (Hz):    100.00000000000000
HelmholtzSolve: -------------------------------------
HelmholtzSolve: 
HelmholtzSolve: Starting Assembly
HelmholtzSolve: Assembly:
: .................... 58%
: ..............Assembly done
DefUtils::DefaultDirichletBCs: Setting Dirichlet boundary conditions
DefUtils::DefaultDirichletBCs: Dirichlet boundary conditions set
       1 0.1043E-05
       2 0.2565E-05
       3 0.2466E-05
       4 0.3743E-06
       5 0.7415E-07
       6 0.6382E-07
       7 0.6184E-07
       8 0.5701E-07
       9 0.5939E-07
      10 0.1225E-06
      11 0.6303E-07
      12 0.1813E-06
      13 0.1600E-05
      14 0.2670E-06
      15 0.3633E-06
      16 0.6401E-06
      17 0.2374E-06
      18 0.8603E-07
      19 0.9776E-07
      20 0.1104E-06
      21 0.1071E-06
      22 0.8780E-07
      23 0.8550E-07
      24 0.8220E-07
      25 0.8271E-07
      26 0.7500E-07
      27 0.8562E-07
      28 0.1055E-06
      29 0.9751E-07
      30 0.8813E-07
      31 0.8872E-07
      32 0.1380E-06
      33 0.1267E-06
      34 0.1059E-06
      35 0.1058E-06
      36 0.9566E-07
      37 0.9952E-07
      38 0.1691E-06
      39 0.1333E-06
      40 0.1418E-06
      41 0.1302E-06
      42 0.4747E-06
      43 0.1033E-05
      44 0.5036E-06
      45 0.5829E-06
      46 0.9970E-06
      47 0.8610E-06
      48 0.4025E-06
      49 0.8856E-06
      50 0.5781E-06
      51 0.1159E-05
      52 0.7736E-06
      53 0.5700E-06
      54 0.3676E-06
      55 0.6224E-06
      56 0.3321E-06
      57 0.7404E-06
      58 0.9686E-06
      59 0.3863E-06
      60 0.3045E-06
      61 0.8148E-06
      62 0.5209E-06
      63 0.6324E-06
      64 0.8867E-06
      65 0.1535E-05
      66 0.5836E-06
      67 0.4701E-06
      68 0.7799E-06
      69 0.4037E-06
      70 0.2805E-06
      71 0.1937E-06
      72 0.1872E-06
      73 0.1468E-06
      74 0.1442E-06
      75 0.1417E-06
      76 0.1431E-06
      77 0.1396E-06
      78 0.1455E-06
      79 0.1706E-06
      80 0.1652E-06
      81 0.2335E-06
      82 0.4054E-06
      83 0.3354E-06
      84 0.1659E-06
      85 0.2786E-06
      86 0.1636E-06
      87 0.1726E-06
      88 0.1581E-06
      89 0.1533E-06
      90 0.1520E-06
      91 0.1287E-06
      92 0.1024E-06
      93 0.8853E-07
      94 0.9989E-07
      95 0.7412E-07
      96 0.7097E-07
      97 0.6847E-07
      98 0.8780E-07
      99 0.7188E-07
     100 0.6800E-07
     101 0.7203E-07
     102 0.6857E-07
     103 0.8195E-07
     104 0.6782E-07
     105 0.6313E-07
     106 0.5589E-07
     107 0.5573E-07
     108 0.5221E-07
     109 0.5086E-07
     110 0.5074E-07
     111 0.5033E-07
     112 0.5317E-07
     113 0.6373E-07
     114 0.4846E-07
     115 0.4928E-07
     116 0.3959E-07
     117 0.3819E-07
     118 0.3899E-07
     119 0.3543E-07
     120 0.3838E-07
     121 0.3467E-07
     122 0.3240E-07
     123 0.3326E-07
     124 0.3329E-07
     125 0.3322E-07
     126 0.7167E-07
     127 0.4409E-07
     128 0.4106E-07
     129 0.8230E-07
     130 0.6151E-07
     131 0.4993E-07
     132 0.4259E-07
     133 0.4866E-07
     134 0.4723E-07
     135 0.4716E-07
     136 0.5238E-07
     137 0.5420E-07
     138 0.5827E-07
     139 0.8014E-07
     140 0.6954E-07
     141 0.8142E-07
     142 0.7971E-07
     143 0.5265E-07
     144 0.5973E-07
     145 0.9670E-07
     146 0.7215E-07
     147 0.5328E-07
     148 0.4755E-07
     149 0.5171E-07
     150 0.4480E-07
     151 0.4228E-07
     152 0.4302E-07
     153 0.4405E-07
     154 0.4428E-07
     155 0.4521E-07
     156 0.4286E-07
     157 0.4299E-07
     158 0.5113E-07
     159 0.4281E-07
     160 0.4486E-07
     161 0.4503E-07
     162 0.4292E-07
     163 0.4499E-07
     164 0.6776E-07
     165 0.7044E-07
     166 0.6759E-07
     167 0.6715E-07
     168 0.6616E-07
     169 0.6752E-07
     170 0.6829E-07
     171 0.6832E-07
     172 0.6866E-07
     173 0.6375E-07
     174 0.6327E-07
     175 0.6297E-07
     176 0.6399E-07
     177 0.6488E-07
     178 0.6411E-07
     179 0.6631E-07
     180 0.6621E-07
     181 0.6504E-07
     182 0.6542E-07
     183 0.6558E-07
     184 0.6551E-07
     185 0.6401E-07
     186 0.6384E-07
     187 0.6221E-07
     188 0.6206E-07
     189 0.6073E-07
     190 0.6114E-07
     191 0.6408E-07
     192 0.6268E-07
     193 0.6928E-07
     194 0.6740E-07
     195 0.7774E-07
     196 0.6699E-07
     197 0.6361E-07
     198 0.6401E-07
     199 0.7730E-07
     200 0.8518E-07
     201 0.6832E-07
     202 0.6305E-07
     203 0.6880E-07
     204 0.6624E-07
     205 0.6648E-07
     206 0.6622E-07
     207 0.6873E-07
     208 0.6597E-07
     209 0.6199E-07
     210 0.6408E-07
     211 0.6327E-07
     212 0.6516E-07
     213 0.6451E-07
     214 0.6365E-07
     215 0.6357E-07
     216 0.6323E-07
     217 0.6255E-07
     218 0.6146E-07
     219 0.6160E-07
     220 0.6108E-07
     221 0.6105E-07
     222 0.5773E-07
     223 0.6084E-07
     224 0.5955E-07
     225 0.6711E-07
     226 0.6403E-07
     227 0.6368E-07
     228 0.6447E-07
     229 0.6877E-07
     230 0.6145E-07
     231 0.6623E-07
     232 0.6709E-07
     233 0.6701E-07
     234 0.6670E-07
     235 0.6631E-07
     236 0.6575E-07
     237 0.6529E-07
     238 0.1498E-06
     239 0.8368E-07
     240 0.7897E-07
     241 0.7748E-07
     242 0.1051E-06
     243 0.8367E-07
     244 0.7312E-07
     245 0.6594E-07
     246 0.8762E-07
     247 0.7821E-07
     248 0.7743E-07
     249 0.7346E-07
     250 0.7539E-07
     251 0.7490E-07
     252 0.6236E-07
     253 0.6172E-07
     254 0.6007E-07
     255 0.5746E-07
     256 0.5824E-07
     257 0.5800E-07
     258 0.5802E-07
     259 0.5824E-07
     260 0.5831E-07
     261 0.5862E-07
     262 0.6095E-07
     263 0.6092E-07
     264 0.6085E-07
     265 0.6078E-07
     266 0.6267E-07
     267 0.6277E-07
     268 0.6112E-07
     269 0.6113E-07
     270 0.6067E-07
     271 0.6134E-07
     272 0.7023E-07
     273 0.6139E-07
     274 0.5946E-07
     275 0.6439E-07
     276 0.5629E-07
     277 0.5243E-07
     278 0.5306E-07
     279 0.5245E-07
     280 0.4995E-07
     281 0.4602E-07
     282 0.4452E-07
     283 0.4440E-07
     284 0.9275E-07
     285 0.6733E-07
     286 0.5566E-07
     287 0.8647E-07
     288 0.8719E-07
     289 0.9719E-07
     290 0.6551E-07
     291 0.6558E-07
     292 0.4413E-07
     293 0.4631E-07
     294 0.4081E-07
     295 0.3842E-07
     296 0.4720E-07
     297 0.3949E-07
     298 0.4956E-07
     299 0.4075E-07
     300 0.3997E-07
     301 0.3932E-07
     302 0.3836E-07
     303 0.3645E-07
     304 0.3636E-07
     305 0.3584E-07
     306 0.4093E-07
     307 0.3798E-07
     308 0.3660E-07
     309 0.3639E-07
     310 0.4076E-07
     311 0.4045E-07
     312 0.3818E-07
     313 0.3943E-07
     314 0.3975E-06
     315 0.3599E-07
     316 0.3587E-07
     317 0.4165E-07
     318 0.3563E-07
     319 0.3510E-07
     320 0.3489E-07
     321 0.3125E-07
     322 0.3104E-07
     323 0.3991E-07
     324 0.2607E-07
     325 0.2551E-07
     326 0.2516E-07
     327 0.2689E-07
     328 0.3300E-07
     329 0.3523E-07
     330 0.3605E-07
     331 0.3408E-07
     332 0.3490E-07
     333 0.3469E-07
     334 0.3341E-07
     335 0.3348E-07
     336 0.3389E-07
     337 0.3226E-07
     338 0.3091E-07
     339 0.4012E-07
     340 0.3190E-07
     341 0.3000E-07
     342 0.4122E-07
     343 0.8702E-07
     344 0.3446E-07
     345 0.3352E-07
     346 0.3798E-07
     347 0.4431E-07
     348 0.6570E-07
     349 0.1808E-07
     350 0.2096E-07
     351 0.1700E-07
     352 0.1689E-07
     353 0.2787E-07
     354 0.8812E-07
     355 0.1615E-07
     356 0.1711E-07
     357 0.1675E-07
     358 0.1773E-07
     359 0.1588E-07
     360 0.1580E-07
     361 0.1588E-07
     362 0.1569E-07
     363 0.1578E-07
     364 0.1598E-07
     365 0.1575E-07
     366 0.1578E-07
     367 0.1595E-07
     368 0.1603E-07
     369 0.1601E-07
     370 0.1596E-07
     371 0.1834E-07
     372 0.1611E-07
     373 0.1595E-07
     374 0.1606E-07
     375 0.1597E-07
     376 0.1648E-07
     377 0.1560E-07
     378 0.1559E-07
     379 0.1558E-07
     380 0.1552E-07
     381 0.1542E-07
     382 0.1540E-07
     383 0.1547E-07
     384 0.1504E-07
     385 0.2655E-07
     386 0.1654E-07
     387 0.1929E-07
     388 0.1552E-07
     389 0.1399E-07
     390 0.1457E-07
     391 0.1853E-07
     392 0.1444E-07
     393 0.1498E-07
     394 0.1522E-07
     395 0.1844E-07
     396 0.1868E-07
     397 0.1815E-07
     398 0.1510E-07
     399 0.2158E-07
     400 0.2390E-07
     401 0.2175E-07
     402 0.2729E-07
     403 0.1889E-07
     404 0.1793E-07
     405 0.2571E-07
     406 0.2090E-07
     407 0.2166E-07
     408 0.4103E-07
     409 0.3224E-07
     410 0.1438E-07
     411 0.1358E-07
     412 0.1327E-07
     413 0.1270E-07
     414 0.1337E-07
     415 0.1320E-07
     416 0.1409E-07
     417 0.1451E-07
     418 0.1334E-07
     419 0.1264E-07
     420 0.1296E-07
     421 0.1305E-07
     422 0.1328E-07
     423 0.1294E-07
     424 0.1382E-07
     425 0.1468E-07
     426 0.1432E-07
     427 0.1273E-07
     428 0.1654E-07
     429 0.1772E-07
     430 0.2699E-07
     431 0.1292E-07
     432 0.1358E-07
     433 0.1313E-07
     434 0.1338E-07
     435 0.1351E-07
     436 0.1321E-07
     437 0.1272E-07
     438 0.1263E-07
     439 0.1260E-07
     440 0.1252E-07
     441 0.1255E-07
     442 0.1264E-07
     443 0.1282E-07
     444 0.1293E-07
     445 0.1299E-07
     446 0.1264E-07
     447 0.1437E-07
     448 0.1298E-07
     449 0.1280E-07
     450 0.1285E-07
     451 0.1278E-07
     452 0.1276E-07
     453 0.1260E-07
     454 0.1280E-07
     455 0.1309E-07
     456 0.1303E-07
     457 0.1280E-07
     458 0.1298E-07
     459 0.1850E-07
     460 0.1374E-07
     461 0.1370E-07
     462 0.1954E-07
     463 0.1496E-07
     464 0.1206E-07
     465 0.1381E-07
     466 0.1345E-07
     467 0.1343E-07
     468 0.1298E-07
     469 0.1214E-07
     470 0.1148E-07
     471 0.1509E-07
     472 0.1152E-07
     473 0.1232E-07
     474 0.1203E-07
     475 0.1138E-07
     476 0.1069E-07
     477 0.1021E-07
     478 0.1017E-07
     479 0.1010E-07
     480 0.1011E-07
     481 0.1008E-07
     482 0.1006E-07
     483 0.1002E-07
     484 0.1002E-07
     485 0.1001E-07
     486 0.1011E-07
     487 0.9847E-08
     488 0.9912E-08
     489 0.9606E-08
     490 0.9767E-08
     491 0.1021E-07
     492 0.1003E-07
     493 0.1002E-07
     494 0.9924E-08
     495 0.9822E-08
     496 0.9877E-08
     497 0.9694E-08
     498 0.9653E-08
     499 0.9679E-08
     500 0.9452E-08
     501 0.9452E-08
NUMERICAL WARNING:: IterSolve: Failed convergence tolerances.
ComputeChange: NS (ITER=10) (NRM,RELC): ( 0.15948197E-02 0.62859355E-07 ) :: helmholtz equation
HelmholtzSolve: iter:   10 Assembly: (s)   35.68  422.70
HelmholtzSolve: iter:   10 Solve:    (s)  122.08 1584.18
ComputeChange: SS (ITER=1) (NRM,RELC): ( 0.15948197E-02  2.0000000     ) :: helmholtz equation
SingleSolver: Attempting to call solver
SingleSolver: Solver Equation string is: result output
ResultOutputSolver: -------------------------------------
ResultOutputSolve: Saving with prefix: case1
ResultOutputSolver: Creating list for saving - if not present
CreateListForSaving: Field Variables for Saving
ResultOutputSolver: Saving in unstructured VTK XML (.vtu) format
VtuOutputSolver: Saving results in VTK XML format with prefix: case1
VtuOutputSolver: Saving number of partitions: 1
ResultOutputSolver: -------------------------------------
ElmerSolver: *** Elmer Solver: ALL DONE ***
ElmerSolver: The end
SOLVER TOTAL TIME(CPU,REAL):      2687.90     2828.74
ELMER SOLVER FINISHED AT: 2017/08/19 00:53:00
